/*---------------------------------------------------------------------------*\
  =========                 |
  \\      /  F ield         | OpenFOAM: The Open Source CFD Toolbox
   \\    /   O peration     | Website:  https://openfoam.org
    \\  /    A nd           | Version:  6
     \\/     M anipulation  |
\*---------------------------------------------------------------------------*/
Build  : 6-f934eabb0d52
Exec   : buoyantPimpleFoam -case /home/mamitsu/OpenFOAM/mamitsu-6/run/aircond5/Case/case4
Date   : May 15 2019
Time   : 17:26:11
Host   : "mamitsu-desktop"
PID    : 5820
I/O    : uncollated
Case   : /home/mamitsu/OpenFOAM/mamitsu-6/run/aircond5/Case/case4
nProcs : 1
sigFpe : Enabling floating point exception trapping (FOAM_SIGFPE).
fileModificationChecking : Monitoring run-time modified files using timeStampMaster (fileModificationSkew 10)
allowSystemOperations : Allowing user-supplied system call operations

// * * * * * * * * * * * * * * * * * * * * * * * * * * * * * * * * * * * * * //
Create time

Create mesh for time = 100


PIMPLE: No convergence criteria found


PIMPLE: Operating solver in PISO mode

Reading thermophysical properties

Selecting thermodynamics package
{
    type            heRhoThermo;
    mixture         pureMixture;
    transport       const;
    thermo          hConst;
    equationOfState perfectGas;
    specie          specie;
    energy          sensibleEnthalpy;
}

Reading field U

Reading/calculating face flux field phi

Creating turbulence model

Selecting turbulence model type RAS
Selecting RAS turbulence model kEpsilon
RAS
{
    RASModel        kEpsilon;
    turbulence      on;
    printCoeffs     on;
    Cmu             0.09;
    C1              1.44;
    C2              1.92;
    C3              0;
    sigmak          1;
    sigmaEps        1.3;
}


Reading g

Reading hRef
Calculating field g.h

Reading field p_rgh

Creating field dpdt

Creating field kinetic energy K

No MRF models present

Radiation model not active: radiationProperties not found
Selecting radiationModel none
No finite volume options present
Courant Number mean: 0.00763671 max: 0.036699

Starting time loop

Courant Number mean: 0.00763671 max: 0.036699
Time = 100.01

diagonal:  Solving for rho, Initial residual = 0, Final residual = 0, No Iterations 0
DILUPBiCGStab:  Solving for Ux, Initial residual = 0.00302886, Final residual = 3.74013e-08, No Iterations 1
DILUPBiCGStab:  Solving for Uy, Initial residual = 0.0830894, Final residual = 7.00642e-07, No Iterations 1
DILUPBiCGStab:  Solving for h, Initial residual = 0.00138318, Final residual = 2.29277e-08, No Iterations 1
DICPCG:  Solving for p_rgh, Initial residual = 0.964104, Final residual = 0.0066791, No Iterations 21
diagonal:  Solving for rho, Initial residual = 0, Final residual = 0, No Iterations 0
time step continuity errors : sum local = 8.1847e-06, global = -1.19057e-07, cumulative = -1.19057e-07
DICPCG:  Solving for p_rgh, Initial residual = 0.0340215, Final residual = 4.73959e-09, No Iterations 37
diagonal:  Solving for rho, Initial residual = 0, Final residual = 0, No Iterations 0
time step continuity errors : sum local = 4.26765e-09, global = -4.26765e-09, cumulative = -1.23324e-07
DILUPBiCGStab:  Solving for epsilon, Initial residual = 0.000327963, Final residual = 3.57914e-09, No Iterations 1
DILUPBiCGStab:  Solving for k, Initial residual = 0.000321218, Final residual = 5.62368e-09, No Iterations 1
ExecutionTime = 0 s  ClockTime = 0 s

Courant Number mean: 0.00761204 max: 0.0417145
Time = 100.02

diagonal:  Solving for rho, Initial residual = 0, Final residual = 0, No Iterations 0
DILUPBiCGStab:  Solving for Ux, Initial residual = 0.0325699, Final residual = 2.93213e-07, No Iterations 1
DILUPBiCGStab:  Solving for Uy, Initial residual = 0.0245725, Final residual = 3.59004e-07, No Iterations 1
DILUPBiCGStab:  Solving for h, Initial residual = 0.000752029, Final residual = 1.10846e-08, No Iterations 1
DICPCG:  Solving for p_rgh, Initial residual = 0.509401, Final residual = 0.00426963, No Iterations 24
diagonal:  Solving for rho, Initial residual = 0, Final residual = 0, No Iterations 0
time step continuity errors : sum local = 1.0062e-06, global = 5.62026e-09, cumulative = -1.17704e-07
DICPCG:  Solving for p_rgh, Initial residual = 0.0109201, Final residual = 4.92994e-09, No Iterations 38
diagonal:  Solving for rho, Initial residual = 0, Final residual = 0, No Iterations 0
time step continuity errors : sum local = 3.08229e-09, global = -2.59049e-09, cumulative = -1.20295e-07
DILUPBiCGStab:  Solving for epsilon, Initial residual = 0.000304411, Final residual = 3.28538e-09, No Iterations 1
DILUPBiCGStab:  Solving for k, Initial residual = 0.000301807, Final residual = 5.03034e-09, No Iterations 1
ExecutionTime = 0.01 s  ClockTime = 0 s

Courant Number mean: 0.00758665 max: 0.0404772
Time = 100.03

diagonal:  Solving for rho, Initial residual = 0, Final residual = 0, No Iterations 0
DILUPBiCGStab:  Solving for Ux, Initial residual = 0.0146652, Final residual = 8.55729e-08, No Iterations 1
DILUPBiCGStab:  Solving for Uy, Initial residual = 0.0115149, Final residual = 1.15939e-07, No Iterations 1
DILUPBiCGStab:  Solving for h, Initial residual = 0.00660503, Final residual = 4.36029e-08, No Iterations 1
DICPCG:  Solving for p_rgh, Initial residual = 0.173423, Final residual = 0.00120309, No Iterations 22
diagonal:  Solving for rho, Initial residual = 0, Final residual = 0, No Iterations 0
time step continuity errors : sum local = 2.98303e-07, global = 3.30824e-11, cumulative = -1.20262e-07
DICPCG:  Solving for p_rgh, Initial residual = 0.00165251, Final residual = 7.02811e-09, No Iterations 35
diagonal:  Solving for rho, Initial residual = 0, Final residual = 0, No Iterations 0
time step continuity errors : sum local = 2.69383e-09, global = -2.4532e-09, cumulative = -1.22715e-07
DILUPBiCGStab:  Solving for epsilon, Initial residual = 0.000276812, Final residual = 2.9852e-09, No Iterations 1
DILUPBiCGStab:  Solving for k, Initial residual = 0.000274904, Final residual = 4.34756e-09, No Iterations 1
ExecutionTime = 0.01 s  ClockTime = 0 s

Courant Number mean: 0.007533 max: 0.0396671
Time = 100.04

diagonal:  Solving for rho, Initial residual = 0, Final residual = 0, No Iterations 0
DILUPBiCGStab:  Solving for Ux, Initial residual = 0.0104815, Final residual = 9.41483e-08, No Iterations 1
DILUPBiCGStab:  Solving for Uy, Initial residual = 0.0104585, Final residual = 1.22166e-07, No Iterations 1
DILUPBiCGStab:  Solving for h, Initial residual = 0.00581604, Final residual = 3.41941e-08, No Iterations 1
DICPCG:  Solving for p_rgh, Initial residual = 0.0746376, Final residual = 0.000665499, No Iterations 22
diagonal:  Solving for rho, Initial residual = 0, Final residual = 0, No Iterations 0
time step continuity errors : sum local = 1.9654e-07, global = 7.12385e-10, cumulative = -1.22002e-07
DICPCG:  Solving for p_rgh, Initial residual = 0.000890184, Final residual = 7.82917e-09, No Iterations 33
diagonal:  Solving for rho, Initial residual = 0, Final residual = 0, No Iterations 0
time step continuity errors : sum local = 1.33449e-09, global = -1.27452e-09, cumulative = -1.23277e-07
DILUPBiCGStab:  Solving for epsilon, Initial residual = 0.000254922, Final residual = 2.72563e-09, No Iterations 1
DILUPBiCGStab:  Solving for k, Initial residual = 0.000251553, Final residual = 3.85612e-09, No Iterations 1
ExecutionTime = 0.01 s  ClockTime = 0 s

Courant Number mean: 0.0074735 max: 0.0390113
Time = 100.05

diagonal:  Solving for rho, Initial residual = 0, Final residual = 0, No Iterations 0
DILUPBiCGStab:  Solving for Ux, Initial residual = 0.0206393, Final residual = 1.45237e-07, No Iterations 1
DILUPBiCGStab:  Solving for Uy, Initial residual = 0.00989011, Final residual = 9.73587e-08, No Iterations 1
DILUPBiCGStab:  Solving for h, Initial residual = 0.00312241, Final residual = 2.18772e-08, No Iterations 1
DICPCG:  Solving for p_rgh, Initial residual = 0.011139, Final residual = 9.78834e-05, No Iterations 22
diagonal:  Solving for rho, Initial residual = 0, Final residual = 0, No Iterations 0
time step continuity errors : sum local = 3.23658e-08, global = 5.6214e-10, cumulative = -1.22715e-07
DICPCG:  Solving for p_rgh, Initial residual = 0.000152181, Final residual = 5.58899e-09, No Iterations 31
diagonal:  Solving for rho, Initial residual = 0, Final residual = 0, No Iterations 0
time step continuity errors : sum local = 1.86276e-10, global = 1.84522e-10, cumulative = -1.2253e-07
DILUPBiCGStab:  Solving for epsilon, Initial residual = 0.000241326, Final residual = 2.54086e-09, No Iterations 1
DILUPBiCGStab:  Solving for k, Initial residual = 0.00024357, Final residual = 3.51126e-09, No Iterations 1
ExecutionTime = 0.01 s  ClockTime = 0 s

Courant Number mean: 0.00742259 max: 0.0383331
Time = 100.06

diagonal:  Solving for rho, Initial residual = 0, Final residual = 0, No Iterations 0
DILUPBiCGStab:  Solving for Ux, Initial residual = 0.0199932, Final residual = 1.36278e-07, No Iterations 1
DILUPBiCGStab:  Solving for Uy, Initial residual = 0.00991317, Final residual = 9.78793e-08, No Iterations 1
DILUPBiCGStab:  Solving for h, Initial residual = 0.000936067, Final residual = 1.01043e-08, No Iterations 1
DICPCG:  Solving for p_rgh, Initial residual = 0.0409561, Final residual = 0.000263236, No Iterations 21
diagonal:  Solving for rho, Initial residual = 0, Final residual = 0, No Iterations 0
time step continuity errors : sum local = 8.31223e-08, global = 4.63857e-10, cumulative = -1.22066e-07
DICPCG:  Solving for p_rgh, Initial residual = 0.000495615, Final residual = 8.53263e-09, No Iterations 33
diagonal:  Solving for rho, Initial residual = 0, Final residual = 0, No Iterations 0
time step continuity errors : sum local = 1.54947e-09, global = 1.54947e-09, cumulative = -1.20517e-07
DILUPBiCGStab:  Solving for epsilon, Initial residual = 0.000236318, Final residual = 2.41465e-09, No Iterations 1
DILUPBiCGStab:  Solving for k, Initial residual = 0.000243964, Final residual = 3.29703e-09, No Iterations 1
ExecutionTime = 0.01 s  ClockTime = 0 s

Courant Number mean: 0.00738993 max: 0.0377
Time = 100.07

diagonal:  Solving for rho, Initial residual = 0, Final residual = 0, No Iterations 0
DILUPBiCGStab:  Solving for Ux, Initial residual = 0.0134749, Final residual = 9.86125e-08, No Iterations 1
DILUPBiCGStab:  Solving for Uy, Initial residual = 0.00862581, Final residual = 9.01099e-08, No Iterations 1
DILUPBiCGStab:  Solving for h, Initial residual = 0.00362573, Final residual = 2.62794e-08, No Iterations 1
DICPCG:  Solving for p_rgh, Initial residual = 0.0775936, Final residual = 0.00071096, No Iterations 20
diagonal:  Solving for rho, Initial residual = 0, Final residual = 0, No Iterations 0
time step continuity errors : sum local = 1.94327e-07, global = 1.86467e-09, cumulative = -1.18652e-07
DICPCG:  Solving for p_rgh, Initial residual = 0.00136987, Final residual = 4.84813e-09, No Iterations 35
diagonal:  Solving for rho, Initial residual = 0, Final residual = 0, No Iterations 0
time step continuity errors : sum local = 2.57533e-09, global = 2.57533e-09, cumulative = -1.16077e-07
DILUPBiCGStab:  Solving for epsilon, Initial residual = 0.000234253, Final residual = 2.32523e-09, No Iterations 1
DILUPBiCGStab:  Solving for k, Initial residual = 0.000246722, Final residual = 3.25992e-09, No Iterations 1
ExecutionTime = 0.02 s  ClockTime = 0 s

Courant Number mean: 0.00737181 max: 0.0372494
Time = 100.08

diagonal:  Solving for rho, Initial residual = 0, Final residual = 0, No Iterations 0
DILUPBiCGStab:  Solving for Ux, Initial residual = 0.00673666, Final residual = 5.7572e-08, No Iterations 1
DILUPBiCGStab:  Solving for Uy, Initial residual = 0.00591014, Final residual = 6.43994e-08, No Iterations 1
DILUPBiCGStab:  Solving for h, Initial residual = 0.00571819, Final residual = 4.12505e-08, No Iterations 1
DICPCG:  Solving for p_rgh, Initial residual = 0.129238, Final residual = 0.00110698, No Iterations 16
diagonal:  Solving for rho, Initial residual = 0, Final residual = 0, No Iterations 0
time step continuity errors : sum local = 2.29456e-07, global = 7.74712e-09, cumulative = -1.0833e-07
DICPCG:  Solving for p_rgh, Initial residual = 0.00297434, Final residual = 7.66596e-09, No Iterations 35
diagonal:  Solving for rho, Initial residual = 0, Final residual = 0, No Iterations 0
time step continuity errors : sum local = 3.09286e-09, global = 3.09286e-09, cumulative = -1.05237e-07
DILUPBiCGStab:  Solving for epsilon, Initial residual = 0.000232052, Final residual = 2.27749e-09, No Iterations 1
DILUPBiCGStab:  Solving for k, Initial residual = 0.000248002, Final residual = 3.28777e-09, No Iterations 1
ExecutionTime = 0.02 s  ClockTime = 0 s

Courant Number mean: 0.00736399 max: 0.0370814
Time = 100.09

diagonal:  Solving for rho, Initial residual = 0, Final residual = 0, No Iterations 0
DILUPBiCGStab:  Solving for Ux, Initial residual = 0.00190214, Final residual = 2.03721e-08, No Iterations 1
DILUPBiCGStab:  Solving for Uy, Initial residual = 0.00240492, Final residual = 2.57114e-08, No Iterations 1
DILUPBiCGStab:  Solving for h, Initial residual = 0.00680382, Final residual = 5.184e-08, No Iterations 1
DICPCG:  Solving for p_rgh, Initial residual = 0.217084, Final residual = 0.00190153, No Iterations 20
diagonal:  Solving for rho, Initial residual = 0, Final residual = 0, No Iterations 0
time step continuity errors : sum local = 2.40353e-07, global = 7.50191e-10, cumulative = -1.04487e-07
DICPCG:  Solving for p_rgh, Initial residual = 0.00364529, Final residual = 7.53978e-09, No Iterations 36
diagonal:  Solving for rho, Initial residual = 0, Final residual = 0, No Iterations 0
time step continuity errors : sum local = 3.05407e-09, global = 3.05407e-09, cumulative = -1.01433e-07
DILUPBiCGStab:  Solving for epsilon, Initial residual = 0.000229385, Final residual = 2.26476e-09, No Iterations 1
DILUPBiCGStab:  Solving for k, Initial residual = 0.000244404, Final residual = 3.22722e-09, No Iterations 1
ExecutionTime = 0.02 s  ClockTime = 0 s

Courant Number mean: 0.00736656 max: 0.0372045
Time = 100.1

diagonal:  Solving for rho, Initial residual = 0, Final residual = 0, No Iterations 0
DILUPBiCGStab:  Solving for Ux, Initial residual = 0.00283528, Final residual = 2.45802e-08, No Iterations 1
DILUPBiCGStab:  Solving for Uy, Initial residual = 0.00162989, Final residual = 1.81803e-08, No Iterations 1
DILUPBiCGStab:  Solving for h, Initial residual = 0.00674271, Final residual = 5.24452e-08, No Iterations 1
DICPCG:  Solving for p_rgh, Initial residual = 0.224733, Final residual = 0.00223014, No Iterations 20
diagonal:  Solving for rho, Initial residual = 0, Final residual = 0, No Iterations 0
time step continuity errors : sum local = 2.32347e-07, global = -2.4122e-10, cumulative = -1.01674e-07
DICPCG:  Solving for p_rgh, Initial residual = 0.00189996, Final residual = 6.8355e-09, No Iterations 35
diagonal:  Solving for rho, Initial residual = 0, Final residual = 0, No Iterations 0
time step continuity errors : sum local = 2.53282e-09, global = 2.53282e-09, cumulative = -9.9141e-08
DILUPBiCGStab:  Solving for epsilon, Initial residual = 0.000229555, Final residual = 2.29109e-09, No Iterations 1
DILUPBiCGStab:  Solving for k, Initial residual = 0.000241883, Final residual = 3.20824e-09, No Iterations 1
ExecutionTime = 0.03 s  ClockTime = 0 s

Courant Number mean: 0.00737819 max: 0.0375507
Time = 100.11

diagonal:  Solving for rho, Initial residual = 0, Final residual = 0, No Iterations 0
DILUPBiCGStab:  Solving for Ux, Initial residual = 0.00624222, Final residual = 5.04329e-08, No Iterations 1
DILUPBiCGStab:  Solving for Uy, Initial residual = 0.00413236, Final residual = 4.5007e-08, No Iterations 1
DILUPBiCGStab:  Solving for h, Initial residual = 0.00568389, Final residual = 4.42412e-08, No Iterations 1
DICPCG:  Solving for p_rgh, Initial residual = 0.0962566, Final residual = 0.000870983, No Iterations 18
diagonal:  Solving for rho, Initial residual = 0, Final residual = 0, No Iterations 0
time step continuity errors : sum local = 1.45601e-07, global = 6.33025e-09, cumulative = -9.28108e-08
DICPCG:  Solving for p_rgh, Initial residual = 0.000923484, Final residual = 7.28608e-09, No Iterations 34
diagonal:  Solving for rho, Initial residual = 0, Final residual = 0, No Iterations 0
time step continuity errors : sum local = 1.67838e-09, global = 1.67838e-09, cumulative = -9.11324e-08
DILUPBiCGStab:  Solving for epsilon, Initial residual = 0.00023323, Final residual = 2.36742e-09, No Iterations 1
DILUPBiCGStab:  Solving for k, Initial residual = 0.000240055, Final residual = 3.35553e-09, No Iterations 1
ExecutionTime = 0.03 s  ClockTime = 0 s

Courant Number mean: 0.0073975 max: 0.0380221
Time = 100.12

diagonal:  Solving for rho, Initial residual = 0, Final residual = 0, No Iterations 0
DILUPBiCGStab:  Solving for Ux, Initial residual = 0.00887902, Final residual = 6.7878e-08, No Iterations 1
DILUPBiCGStab:  Solving for Uy, Initial residual = 0.00582226, Final residual = 6.29179e-08, No Iterations 1
DILUPBiCGStab:  Solving for h, Initial residual = 0.00394259, Final residual = 3.24882e-08, No Iterations 1
DICPCG:  Solving for p_rgh, Initial residual = 0.0354474, Final residual = 0.000339801, No Iterations 21
diagonal:  Solving for rho, Initial residual = 0, Final residual = 0, No Iterations 0
time step continuity errors : sum local = 6.98259e-08, global = -3.10609e-10, cumulative = -9.1443e-08
DICPCG:  Solving for p_rgh, Initial residual = 0.00038179, Final residual = 4.37476e-09, No Iterations 32
diagonal:  Solving for rho, Initial residual = 0, Final residual = 0, No Iterations 0
time step continuity errors : sum local = 6.69703e-10, global = 6.69703e-10, cumulative = -9.07733e-08
DILUPBiCGStab:  Solving for epsilon, Initial residual = 0.000239733, Final residual = 2.46399e-09, No Iterations 1
DILUPBiCGStab:  Solving for k, Initial residual = 0.000240735, Final residual = 3.56069e-09, No Iterations 1
ExecutionTime = 0.03 s  ClockTime = 0 s

Courant Number mean: 0.00742641 max: 0.0385244
Time = 100.13

diagonal:  Solving for rho, Initial residual = 0, Final residual = 0, No Iterations 0
DILUPBiCGStab:  Solving for Ux, Initial residual = 0.01005, Final residual = 7.5122e-08, No Iterations 1
DILUPBiCGStab:  Solving for Uy, Initial residual = 0.00643424, Final residual = 6.91527e-08, No Iterations 1
DILUPBiCGStab:  Solving for h, Initial residual = 0.00190014, Final residual = 1.89654e-08, No Iterations 1
DICPCG:  Solving for p_rgh, Initial residual = 0.0187855, Final residual = 0.000167649, No Iterations 21
diagonal:  Solving for rho, Initial residual = 0, Final residual = 0, No Iterations 0
time step continuity errors : sum local = 3.6569e-08, global = -2.66622e-10, cumulative = -9.10399e-08
DICPCG:  Solving for p_rgh, Initial residual = 0.0002603, Final residual = 8.69459e-09, No Iterations 31
diagonal:  Solving for rho, Initial residual = 0, Final residual = 0, No Iterations 0
time step continuity errors : sum local = 3.19907e-10, global = -3.19014e-10, cumulative = -9.13589e-08
DILUPBiCGStab:  Solving for epsilon, Initial residual = 0.000248487, Final residual = 2.57282e-09, No Iterations 1
DILUPBiCGStab:  Solving for k, Initial residual = 0.000246914, Final residual = 3.81287e-09, No Iterations 1
ExecutionTime = 0.04 s  ClockTime = 0 s

Courant Number mean: 0.00745492 max: 0.0389776
Time = 100.14

diagonal:  Solving for rho, Initial residual = 0, Final residual = 0, No Iterations 0
DILUPBiCGStab:  Solving for Ux, Initial residual = 0.00939442, Final residual = 6.9768e-08, No Iterations 1
DILUPBiCGStab:  Solving for Uy, Initial residual = 0.00597756, Final residual = 6.4569e-08, No Iterations 1
DILUPBiCGStab:  Solving for h, Initial residual = 0.00107047, Final residual = 1.27295e-08, No Iterations 1
DICPCG:  Solving for p_rgh, Initial residual = 0.0482552, Final residual = 0.000337138, No Iterations 20
diagonal:  Solving for rho, Initial residual = 0, Final residual = 0, No Iterations 0
time step continuity errors : sum local = 6.89274e-08, global = -1.29867e-11, cumulative = -9.13719e-08
DICPCG:  Solving for p_rgh, Initial residual = 0.000607221, Final residual = 9.16339e-09, No Iterations 33
diagonal:  Solving for rho, Initial residual = 0, Final residual = 0, No Iterations 0
time step continuity errors : sum local = 1.13949e-09, global = -1.13949e-09, cumulative = -9.25114e-08
DILUPBiCGStab:  Solving for epsilon, Initial residual = 0.000257645, Final residual = 2.68518e-09, No Iterations 1
DILUPBiCGStab:  Solving for k, Initial residual = 0.000257032, Final residual = 4.07963e-09, No Iterations 1
ExecutionTime = 0.04 s  ClockTime = 0 s

Courant Number mean: 0.00747738 max: 0.0393196
Time = 100.15

diagonal:  Solving for rho, Initial residual = 0, Final residual = 0, No Iterations 0
DILUPBiCGStab:  Solving for Ux, Initial residual = 0.00721573, Final residual = 5.4015e-08, No Iterations 1
DILUPBiCGStab:  Solving for Uy, Initial residual = 0.00467385, Final residual = 5.09342e-08, No Iterations 1
DILUPBiCGStab:  Solving for h, Initial residual = 0.00274811, Final residual = 2.67635e-08, No Iterations 1
DICPCG:  Solving for p_rgh, Initial residual = 0.0818317, Final residual = 0.000614155, No Iterations 20
diagonal:  Solving for rho, Initial residual = 0, Final residual = 0, No Iterations 0
time step continuity errors : sum local = 1.07306e-07, global = -1.26101e-09, cumulative = -9.37724e-08
DICPCG:  Solving for p_rgh, Initial residual = 0.00125609, Final residual = 9.77563e-09, No Iterations 33
diagonal:  Solving for rho, Initial residual = 0, Final residual = 0, No Iterations 0
time step continuity errors : sum local = 1.68567e-09, global = -1.68567e-09, cumulative = -9.54581e-08
DILUPBiCGStab:  Solving for epsilon, Initial residual = 0.000263461, Final residual = 2.75327e-09, No Iterations 1
DILUPBiCGStab:  Solving for k, Initial residual = 0.000264865, Final residual = 4.24138e-09, No Iterations 1
ExecutionTime = 0.05 s  ClockTime = 0 s

Courant Number mean: 0.00749003 max: 0.0395089
Time = 100.16

diagonal:  Solving for rho, Initial residual = 0, Final residual = 0, No Iterations 0
DILUPBiCGStab:  Solving for Ux, Initial residual = 0.00417228, Final residual = 3.23121e-08, No Iterations 1
DILUPBiCGStab:  Solving for Uy, Initial residual = 0.00281984, Final residual = 3.10499e-08, No Iterations 1
DILUPBiCGStab:  Solving for h, Initial residual = 0.00386276, Final residual = 3.48779e-08, No Iterations 1
DICPCG:  Solving for p_rgh, Initial residual = 0.127028, Final residual = 0.0010584, No Iterations 20
diagonal:  Solving for rho, Initial residual = 0, Final residual = 0, No Iterations 0
time step continuity errors : sum local = 1.38843e-07, global = -1.5976e-09, cumulative = -9.70557e-08
DICPCG:  Solving for p_rgh, Initial residual = 0.00261627, Final residual = 8.09016e-09, No Iterations 35
diagonal:  Solving for rho, Initial residual = 0, Final residual = 0, No Iterations 0
time step continuity errors : sum local = 1.90531e-09, global = -1.90531e-09, cumulative = -9.8961e-08
DILUPBiCGStab:  Solving for epsilon, Initial residual = 0.000265862, Final residual = 2.76647e-09, No Iterations 1
DILUPBiCGStab:  Solving for k, Initial residual = 0.000267202, Final residual = 4.28605e-09, No Iterations 1
ExecutionTime = 0.05 s  ClockTime = 0 s

Courant Number mean: 0.00749158 max: 0.0395304
Time = 100.17

diagonal:  Solving for rho, Initial residual = 0, Final residual = 0, No Iterations 0
DILUPBiCGStab:  Solving for Ux, Initial residual = 0.000967479, Final residual = 1.02936e-08, No Iterations 1
DILUPBiCGStab:  Solving for Uy, Initial residual = 0.000828909, Final residual = 7.86294e-09, No Iterations 1
DILUPBiCGStab:  Solving for h, Initial residual = 0.00430799, Final residual = 3.79338e-08, No Iterations 1
DICPCG:  Solving for p_rgh, Initial residual = 0.199986, Final residual = 0.00168021, No Iterations 20
diagonal:  Solving for rho, Initial residual = 0, Final residual = 0, No Iterations 0
time step continuity errors : sum local = 1.36022e-07, global = -1.95295e-09, cumulative = -1.00914e-07
DICPCG:  Solving for p_rgh, Initial residual = 0.00189361, Final residual = 9.99081e-09, No Iterations 34
diagonal:  Solving for rho, Initial residual = 0, Final residual = 0, No Iterations 0
time step continuity errors : sum local = 1.80305e-09, global = -1.80305e-09, cumulative = -1.02717e-07
DILUPBiCGStab:  Solving for epsilon, Initial residual = 0.000263964, Final residual = 2.73686e-09, No Iterations 1
DILUPBiCGStab:  Solving for k, Initial residual = 0.000264522, Final residual = 4.22458e-09, No Iterations 1
ExecutionTime = 0.05 s  ClockTime = 0 s

Courant Number mean: 0.0074829 max: 0.0393971
Time = 100.18

diagonal:  Solving for rho, Initial residual = 0, Final residual = 0, No Iterations 0
DILUPBiCGStab:  Solving for Ux, Initial residual = 0.00248657, Final residual = 2.12473e-08, No Iterations 1
DILUPBiCGStab:  Solving for Uy, Initial residual = 0.00135033, Final residual = 1.54026e-08, No Iterations 1
DILUPBiCGStab:  Solving for h, Initial residual = 0.00409374, Final residual = 3.64607e-08, No Iterations 1
DICPCG:  Solving for p_rgh, Initial residual = 0.134794, Final residual = 0.000882313, No Iterations 16
diagonal:  Solving for rho, Initial residual = 0, Final residual = 0, No Iterations 0
time step continuity errors : sum local = 8.68908e-08, global = -1.53879e-10, cumulative = -1.02871e-07
DICPCG:  Solving for p_rgh, Initial residual = 0.000919469, Final residual = 8.69967e-09, No Iterations 33
diagonal:  Solving for rho, Initial residual = 0, Final residual = 0, No Iterations 0
time step continuity errors : sum local = 1.43393e-09, global = -1.43393e-09, cumulative = -1.04305e-07
DILUPBiCGStab:  Solving for epsilon, Initial residual = 0.00025887, Final residual = 2.67176e-09, No Iterations 1
DILUPBiCGStab:  Solving for k, Initial residual = 0.00025808, Final residual = 4.08179e-09, No Iterations 1
ExecutionTime = 0.06 s  ClockTime = 0 s

Courant Number mean: 0.00746648 max: 0.0391451
Time = 100.19

diagonal:  Solving for rho, Initial residual = 0, Final residual = 0, No Iterations 0
DILUPBiCGStab:  Solving for Ux, Initial residual = 0.00467373, Final residual = 3.58272e-08, No Iterations 1
DILUPBiCGStab:  Solving for Uy, Initial residual = 0.00273658, Final residual = 2.99455e-08, No Iterations 1
DILUPBiCGStab:  Solving for h, Initial residual = 0.0033323, Final residual = 3.11419e-08, No Iterations 1
DICPCG:  Solving for p_rgh, Initial residual = 0.0653053, Final residual = 0.000572597, No Iterations 20
diagonal:  Solving for rho, Initial residual = 0, Final residual = 0, No Iterations 0
time step continuity errors : sum local = 7.63305e-08, global = 1.06152e-09, cumulative = -1.03243e-07
DICPCG:  Solving for p_rgh, Initial residual = 0.000620792, Final residual = 5.66662e-09, No Iterations 33
diagonal:  Solving for rho, Initial residual = 0, Final residual = 0, No Iterations 0
time step continuity errors : sum local = 8.87232e-10, global = -8.87232e-10, cumulative = -1.04131e-07
DILUPBiCGStab:  Solving for epsilon, Initial residual = 0.000252343, Final residual = 2.58878e-09, No Iterations 1
DILUPBiCGStab:  Solving for k, Initial residual = 0.000250067, Final residual = 3.89289e-09, No Iterations 1
ExecutionTime = 0.06 s  ClockTime = 0 s

Courant Number mean: 0.00744564 max: 0.038825
Time = 100.2

diagonal:  Solving for rho, Initial residual = 0, Final residual = 0, No Iterations 0
DILUPBiCGStab:  Solving for Ux, Initial residual = 0.00595576, Final residual = 4.48442e-08, No Iterations 1
DILUPBiCGStab:  Solving for Uy, Initial residual = 0.00368366, Final residual = 3.97599e-08, No Iterations 1
DILUPBiCGStab:  Solving for h, Initial residual = 0.00220785, Final residual = 2.25633e-08, No Iterations 1
DICPCG:  Solving for p_rgh, Initial residual = 0.0221153, Final residual = 0.00021794, No Iterations 21
diagonal:  Solving for rho, Initial residual = 0, Final residual = 0, No Iterations 0
time step continuity errors : sum local = 3.33486e-08, global = 2.21186e-10, cumulative = -1.03909e-07
DICPCG:  Solving for p_rgh, Initial residual = 0.000252143, Final residual = 6.26673e-09, No Iterations 31
diagonal:  Solving for rho, Initial residual = 0, Final residual = 0, No Iterations 0
time step continuity errors : sum local = 2.69974e-10, global = -2.69974e-10, cumulative = -1.04179e-07
DILUPBiCGStab:  Solving for epsilon, Initial residual = 0.000247204, Final residual = 2.52484e-09, No Iterations 1
DILUPBiCGStab:  Solving for k, Initial residual = 0.000244115, Final residual = 3.71484e-09, No Iterations 1
ExecutionTime = 0.06 s  ClockTime = 0 s

Courant Number mean: 0.00742432 max: 0.0384912
Time = 100.21

diagonal:  Solving for rho, Initial residual = 0, Final residual = 0, No Iterations 0
DILUPBiCGStab:  Solving for Ux, Initial residual = 0.00622366, Final residual = 4.68484e-08, No Iterations 1
DILUPBiCGStab:  Solving for Uy, Initial residual = 0.00395889, Final residual = 4.23027e-08, No Iterations 1
DILUPBiCGStab:  Solving for h, Initial residual = 0.000940404, Final residual = 1.17789e-08, No Iterations 1
DICPCG:  Solving for p_rgh, Initial residual = 0.0221757, Final residual = 0.000173489, No Iterations 20
diagonal:  Solving for rho, Initial residual = 0, Final residual = 0, No Iterations 0
time step continuity errors : sum local = 2.72668e-08, global = -3.3343e-10, cumulative = -1.04513e-07
DICPCG:  Solving for p_rgh, Initial residual = 0.000269448, Final residual = 9.15888e-09, No Iterations 31
diagonal:  Solving for rho, Initial residual = 0, Final residual = 0, No Iterations 0
time step continuity errors : sum local = 3.1428e-10, global = 3.13902e-10, cumulative = -1.04199e-07
DILUPBiCGStab:  Solving for epsilon, Initial residual = 0.000243796, Final residual = 2.48233e-09, No Iterations 1
DILUPBiCGStab:  Solving for k, Initial residual = 0.0002419, Final residual = 3.61059e-09, No Iterations 1
ExecutionTime = 0.07 s  ClockTime = 0 s

Courant Number mean: 0.00740572 max: 0.0381932
Time = 100.22

diagonal:  Solving for rho, Initial residual = 0, Final residual = 0, No Iterations 0
DILUPBiCGStab:  Solving for Ux, Initial residual = 0.00554316, Final residual = 4.22219e-08, No Iterations 1
DILUPBiCGStab:  Solving for Uy, Initial residual = 0.00359307, Final residual = 3.80735e-08, No Iterations 1
DILUPBiCGStab:  Solving for h, Initial residual = 0.00119006, Final residual = 1.34344e-08, No Iterations 1
DICPCG:  Solving for p_rgh, Initial residual = 0.0455735, Final residual = 0.000306964, No Iterations 20
diagonal:  Solving for rho, Initial residual = 0, Final residual = 0, No Iterations 0
time step continuity errors : sum local = 4.51676e-08, global = -5.44001e-11, cumulative = -1.04253e-07
DICPCG:  Solving for p_rgh, Initial residual = 0.000564916, Final residual = 5.21174e-09, No Iterations 34
diagonal:  Solving for rho, Initial residual = 0, Final residual = 0, No Iterations 0
time step continuity errors : sum local = 7.78122e-10, global = 7.78122e-10, cumulative = -1.03475e-07
DILUPBiCGStab:  Solving for epsilon, Initial residual = 0.000242568, Final residual = 2.463e-09, No Iterations 1
DILUPBiCGStab:  Solving for k, Initial residual = 0.000241704, Final residual = 3.54406e-09, No Iterations 1
ExecutionTime = 0.07 s  ClockTime = 0 s

Courant Number mean: 0.00739189 max: 0.0379687
Time = 100.23

diagonal:  Solving for rho, Initial residual = 0, Final residual = 0, No Iterations 0
DILUPBiCGStab:  Solving for Ux, Initial residual = 0.00413973, Final residual = 3.26945e-08, No Iterations 1
DILUPBiCGStab:  Solving for Uy, Initial residual = 0.00271339, Final residual = 2.85953e-08, No Iterations 1
DILUPBiCGStab:  Solving for h, Initial residual = 0.0021311, Final residual = 2.03755e-08, No Iterations 1
DICPCG:  Solving for p_rgh, Initial residual = 0.0715781, Final residual = 0.000546348, No Iterations 20
diagonal:  Solving for rho, Initial residual = 0, Final residual = 0, No Iterations 0
time step continuity errors : sum local = 6.95895e-08, global = 7.83841e-10, cumulative = -1.02691e-07
DICPCG:  Solving for p_rgh, Initial residual = 0.00105315, Final residual = 9.38573e-09, No Iterations 34
diagonal:  Solving for rho, Initial residual = 0, Final residual = 0, No Iterations 0
time step continuity errors : sum local = 1.06534e-09, global = 1.06534e-09, cumulative = -1.01626e-07
DILUPBiCGStab:  Solving for epsilon, Initial residual = 0.000243223, Final residual = 2.46803e-09, No Iterations 1
DILUPBiCGStab:  Solving for k, Initial residual = 0.000242994, Final residual = 3.52266e-09, No Iterations 1
ExecutionTime = 0.07 s  ClockTime = 0 s

Courant Number mean: 0.00738403 max: 0.0378394
Time = 100.24

diagonal:  Solving for rho, Initial residual = 0, Final residual = 0, No Iterations 0
DILUPBiCGStab:  Solving for Ux, Initial residual = 0.00231261, Final residual = 2.06034e-08, No Iterations 1
DILUPBiCGStab:  Solving for Uy, Initial residual = 0.00152681, Final residual = 1.58589e-08, No Iterations 1
DILUPBiCGStab:  Solving for h, Initial residual = 0.00271847, Final residual = 2.42337e-08, No Iterations 1
DICPCG:  Solving for p_rgh, Initial residual = 0.101702, Final residual = 0.000864575, No Iterations 20
diagonal:  Solving for rho, Initial residual = 0, Final residual = 0, No Iterations 0
time step continuity errors : sum local = 8.62567e-08, global = 9.19332e-10, cumulative = -1.00707e-07
DICPCG:  Solving for p_rgh, Initial residual = 0.00180638, Final residual = 7.10225e-09, No Iterations 35
diagonal:  Solving for rho, Initial residual = 0, Final residual = 0, No Iterations 0
time step continuity errors : sum local = 1.15229e-09, global = 1.15229e-09, cumulative = -9.95543e-08
DILUPBiCGStab:  Solving for epsilon, Initial residual = 0.000245703, Final residual = 2.49598e-09, No Iterations 1
DILUPBiCGStab:  Solving for k, Initial residual = 0.000244953, Final residual = 3.54408e-09, No Iterations 1
ExecutionTime = 0.08 s  ClockTime = 0 s

Courant Number mean: 0.00738196 max: 0.0378095
Time = 100.25

diagonal:  Solving for rho, Initial residual = 0, Final residual = 0, No Iterations 0
DILUPBiCGStab:  Solving for Ux, Initial residual = 0.000437531, Final residual = 5.64181e-09, No Iterations 1
DILUPBiCGStab:  Solving for Uy, Initial residual = 0.000426018, Final residual = 3.73599e-09, No Iterations 1
DILUPBiCGStab:  Solving for h, Initial residual = 0.00289839, Final residual = 2.53744e-08, No Iterations 1
DICPCG:  Solving for p_rgh, Initial residual = 0.135897, Final residual = 0.00117881, No Iterations 20
diagonal:  Solving for rho, Initial residual = 0, Final residual = 0, No Iterations 0
time step continuity errors : sum local = 8.22658e-08, global = 9.70595e-10, cumulative = -9.85837e-08
DICPCG:  Solving for p_rgh, Initial residual = 0.00135363, Final residual = 9.58944e-09, No Iterations 34
diagonal:  Solving for rho, Initial residual = 0, Final residual = 0, No Iterations 0
time step continuity errors : sum local = 1.04945e-09, global = 1.04945e-09, cumulative = -9.75343e-08
DILUPBiCGStab:  Solving for epsilon, Initial residual = 0.000250218, Final residual = 2.54487e-09, No Iterations 1
DILUPBiCGStab:  Solving for k, Initial residual = 0.000247862, Final residual = 3.61576e-09, No Iterations 1
ExecutionTime = 0.08 s  ClockTime = 0 s

Courant Number mean: 0.00738498 max: 0.0378674
Time = 100.26

diagonal:  Solving for rho, Initial residual = 0, Final residual = 0, No Iterations 0
DILUPBiCGStab:  Solving for Ux, Initial residual = 0.00185173, Final residual = 1.685e-08, No Iterations 1
DILUPBiCGStab:  Solving for Uy, Initial residual = 0.00107814, Final residual = 1.20461e-08, No Iterations 1
DILUPBiCGStab:  Solving for h, Initial residual = 0.0026904, Final residual = 2.41332e-08, No Iterations 1
DICPCG:  Solving for p_rgh, Initial residual = 0.0898097, Final residual = 0.000664991, No Iterations 16
diagonal:  Solving for rho, Initial residual = 0, Final residual = 0, No Iterations 0
time step continuity errors : sum local = 5.51917e-08, global = 1.26345e-09, cumulative = -9.62708e-08
DICPCG:  Solving for p_rgh, Initial residual = 0.000745152, Final residual = 7.31322e-09, No Iterations 33
diagonal:  Solving for rho, Initial residual = 0, Final residual = 0, No Iterations 0
time step continuity errors : sum local = 7.95597e-10, global = 7.95597e-10, cumulative = -9.54752e-08
DILUPBiCGStab:  Solving for epsilon, Initial residual = 0.000257323, Final residual = 2.61374e-09, No Iterations 1
DILUPBiCGStab:  Solving for k, Initial residual = 0.00025252, Final residual = 3.7276e-09, No Iterations 1
ExecutionTime = 0.08 s  ClockTime = 0 s

Courant Number mean: 0.00739216 max: 0.0379889
Time = 100.27

diagonal:  Solving for rho, Initial residual = 0, Final residual = 0, No Iterations 0
DILUPBiCGStab:  Solving for Ux, Initial residual = 0.00307737, Final residual = 2.48754e-08, No Iterations 1
DILUPBiCGStab:  Solving for Uy, Initial residual = 0.00183631, Final residual = 2.02182e-08, No Iterations 1
DILUPBiCGStab:  Solving for h, Initial residual = 0.00217502, Final residual = 2.08546e-08, No Iterations 1
DICPCG:  Solving for p_rgh, Initial residual = 0.0438272, Final residual = 0.000389622, No Iterations 20
diagonal:  Solving for rho, Initial residual = 0, Final residual = 0, No Iterations 0
time step continuity errors : sum local = 3.98805e-08, global = -7.57064e-10, cumulative = -9.62323e-08
DICPCG:  Solving for p_rgh, Initial residual = 0.00045264, Final residual = 8.78909e-09, No Iterations 32
diagonal:  Solving for rho, Initial residual = 0, Final residual = 0, No Iterations 0
time step continuity errors : sum local = 4.4806e-10, global = 4.4806e-10, cumulative = -9.57842e-08
DILUPBiCGStab:  Solving for epsilon, Initial residual = 0.000265321, Final residual = 2.70336e-09, No Iterations 1
DILUPBiCGStab:  Solving for k, Initial residual = 0.000258458, Final residual = 3.85783e-09, No Iterations 1
ExecutionTime = 0.08 s  ClockTime = 0 s

Courant Number mean: 0.00740161 max: 0.0381426
Time = 100.28

diagonal:  Solving for rho, Initial residual = 0, Final residual = 0, No Iterations 0
DILUPBiCGStab:  Solving for Ux, Initial residual = 0.00370815, Final residual = 2.91343e-08, No Iterations 1
DILUPBiCGStab:  Solving for Uy, Initial residual = 0.00227584, Final residual = 2.48477e-08, No Iterations 1
DILUPBiCGStab:  Solving for h, Initial residual = 0.00146931, Final residual = 1.5936e-08, No Iterations 1
DICPCG:  Solving for p_rgh, Initial residual = 0.010963, Final residual = 8.66452e-05, No Iterations 22
diagonal:  Solving for rho, Initial residual = 0, Final residual = 0, No Iterations 0
time step continuity errors : sum local = 9.8041e-09, global = -2.2991e-10, cumulative = -9.60141e-08
DICPCG:  Solving for p_rgh, Initial residual = 0.000113997, Final residual = 7.45034e-09, No Iterations 30
diagonal:  Solving for rho, Initial residual = 0, Final residual = 0, No Iterations 0
time step continuity errors : sum local = 7.23804e-11, global = 7.23804e-11, cumulative = -9.59417e-08
DILUPBiCGStab:  Solving for epsilon, Initial residual = 0.000273653, Final residual = 2.80248e-09, No Iterations 1
DILUPBiCGStab:  Solving for k, Initial residual = 0.00026494, Final residual = 3.99452e-09, No Iterations 1
ExecutionTime = 0.09 s  ClockTime = 0 s

Courant Number mean: 0.00741132 max: 0.0382959
Time = 100.29

diagonal:  Solving for rho, Initial residual = 0, Final residual = 0, No Iterations 0
DILUPBiCGStab:  Solving for Ux, Initial residual = 0.00371676, Final residual = 2.90886e-08, No Iterations 1
DILUPBiCGStab:  Solving for Uy, Initial residual = 0.00233088, Final residual = 2.53536e-08, No Iterations 1
DILUPBiCGStab:  Solving for h, Initial residual = 0.000717343, Final residual = 1.01787e-08, No Iterations 1
DICPCG:  Solving for p_rgh, Initial residual = 0.023393, Final residual = 0.000156922, No Iterations 18
diagonal:  Solving for rho, Initial residual = 0, Final residual = 0, No Iterations 0
time step continuity errors : sum local = 1.77031e-08, global = -3.4708e-10, cumulative = -9.62888e-08
DICPCG:  Solving for p_rgh, Initial residual = 0.000263602, Final residual = 6.5451e-09, No Iterations 32
diagonal:  Solving for rho, Initial residual = 0, Final residual = 0, No Iterations 0
time step continuity errors : sum local = 2.69761e-10, global = -2.69679e-10, cumulative = -9.65585e-08
DILUPBiCGStab:  Solving for epsilon, Initial residual = 0.00028178, Final residual = 2.89961e-09, No Iterations 1
DILUPBiCGStab:  Solving for k, Initial residual = 0.000271909, Final residual = 4.13431e-09, No Iterations 1
ExecutionTime = 0.09 s  ClockTime = 0 s

Courant Number mean: 0.00741955 max: 0.0384197
Time = 100.3

diagonal:  Solving for rho, Initial residual = 0, Final residual = 0, No Iterations 0
DILUPBiCGStab:  Solving for Ux, Initial residual = 0.00317628, Final residual = 2.5224e-08, No Iterations 1
DILUPBiCGStab:  Solving for Uy, Initial residual = 0.00201266, Final residual = 2.1904e-08, No Iterations 1
DILUPBiCGStab:  Solving for h, Initial residual = 0.000962271, Final residual = 1.18675e-08, No Iterations 1
DICPCG:  Solving for p_rgh, Initial residual = 0.0429232, Final residual = 0.000295892, No Iterations 20
diagonal:  Solving for rho, Initial residual = 0, Final residual = 0, No Iterations 0
time step continuity errors : sum local = 3.08066e-08, global = -2.99972e-10, cumulative = -9.68585e-08
DICPCG:  Solving for p_rgh, Initial residual = 0.000517863, Final residual = 8.94849e-09, No Iterations 33
diagonal:  Solving for rho, Initial residual = 0, Final residual = 0, No Iterations 0
time step continuity errors : sum local = 5.28888e-10, global = -5.28888e-10, cumulative = -9.73874e-08
DILUPBiCGStab:  Solving for epsilon, Initial residual = 0.000289223, Final residual = 2.99175e-09, No Iterations 1
DILUPBiCGStab:  Solving for k, Initial residual = 0.000278302, Final residual = 4.25321e-09, No Iterations 1
ExecutionTime = 0.09 s  ClockTime = 0 s

Courant Number mean: 0.00742484 max: 0.0384933
Time = 100.31

diagonal:  Solving for rho, Initial residual = 0, Final residual = 0, No Iterations 0
DILUPBiCGStab:  Solving for Ux, Initial residual = 0.00223753, Final residual = 1.88406e-08, No Iterations 1
DILUPBiCGStab:  Solving for Uy, Initial residual = 0.00141786, Final residual = 1.54563e-08, No Iterations 1
DILUPBiCGStab:  Solving for h, Initial residual = 0.00149736, Final residual = 1.62468e-08, No Iterations 1
DICPCG:  Solving for p_rgh, Initial residual = 0.0647852, Final residual = 0.000518111, No Iterations 20
diagonal:  Solving for rho, Initial residual = 0, Final residual = 0, No Iterations 0
time step continuity errors : sum local = 4.68562e-08, global = -6.17854e-10, cumulative = -9.80052e-08
DICPCG:  Solving for p_rgh, Initial residual = 0.000915187, Final residual = 6.67795e-09, No Iterations 34
diagonal:  Solving for rho, Initial residual = 0, Final residual = 0, No Iterations 0
time step continuity errors : sum local = 6.75024e-10, global = -6.75024e-10, cumulative = -9.86802e-08
DILUPBiCGStab:  Solving for epsilon, Initial residual = 0.000295283, Final residual = 3.06805e-09, No Iterations 1
DILUPBiCGStab:  Solving for k, Initial residual = 0.000282944, Final residual = 4.33561e-09, No Iterations 1
ExecutionTime = 0.09 s  ClockTime = 0 s

Courant Number mean: 0.00742629 max: 0.0385059
Time = 100.32

diagonal:  Solving for rho, Initial residual = 0, Final residual = 0, No Iterations 0
DILUPBiCGStab:  Solving for Ux, Initial residual = 0.0011068, Final residual = 1.121e-08, No Iterations 1
DILUPBiCGStab:  Solving for Uy, Initial residual = 0.00074933, Final residual = 7.57965e-09, No Iterations 1
DILUPBiCGStab:  Solving for h, Initial residual = 0.00179789, Final residual = 1.86209e-08, No Iterations 1
DICPCG:  Solving for p_rgh, Initial residual = 0.0856296, Final residual = 0.000743945, No Iterations 20
diagonal:  Solving for rho, Initial residual = 0, Final residual = 0, No Iterations 0
time step continuity errors : sum local = 5.40268e-08, global = -7.4195e-10, cumulative = -9.94222e-08
DICPCG:  Solving for p_rgh, Initial residual = 0.00107624, Final residual = 6.88129e-09, No Iterations 34
diagonal:  Solving for rho, Initial residual = 0, Final residual = 0, No Iterations 0
time step continuity errors : sum local = 6.99017e-10, global = -6.99017e-10, cumulative = -1.00121e-07
DILUPBiCGStab:  Solving for epsilon, Initial residual = 0.000299835, Final residual = 3.13876e-09, No Iterations 1
DILUPBiCGStab:  Solving for k, Initial residual = 0.000285687, Final residual = 4.39125e-09, No Iterations 1
ExecutionTime = 0.1 s  ClockTime = 0 s

Courant Number mean: 0.00742379 max: 0.0384575
Time = 100.33

diagonal:  Solving for rho, Initial residual = 0, Final residual = 0, No Iterations 0
DILUPBiCGStab:  Solving for Ux, Initial residual = 0.000582674, Final residual = 7.05345e-09, No Iterations 1
DILUPBiCGStab:  Solving for Uy, Initial residual = 0.000387684, Final residual = 4.45178e-09, No Iterations 1
DILUPBiCGStab:  Solving for h, Initial residual = 0.00184538, Final residual = 1.89587e-08, No Iterations 1
DICPCG:  Solving for p_rgh, Initial residual = 0.0851779, Final residual = 0.000706733, No Iterations 18
diagonal:  Solving for rho, Initial residual = 0, Final residual = 0, No Iterations 0
time step continuity errors : sum local = 4.64081e-08, global = -2.27272e-09, cumulative = -1.02394e-07
DICPCG:  Solving for p_rgh, Initial residual = 0.00072313, Final residual = 6.89292e-09, No Iterations 34
diagonal:  Solving for rho, Initial residual = 0, Final residual = 0, No Iterations 0
time step continuity errors : sum local = 6.11867e-10, global = -6.11867e-10, cumulative = -1.03006e-07
DILUPBiCGStab:  Solving for epsilon, Initial residual = 0.000303173, Final residual = 3.20285e-09, No Iterations 1
DILUPBiCGStab:  Solving for k, Initial residual = 0.00028688, Final residual = 4.41982e-09, No Iterations 1
ExecutionTime = 0.1 s  ClockTime = 0 s

Courant Number mean: 0.00741791 max: 0.0383575
Time = 100.34

diagonal:  Solving for rho, Initial residual = 0, Final residual = 0, No Iterations 0
DILUPBiCGStab:  Solving for Ux, Initial residual = 0.00152138, Final residual = 1.45112e-08, No Iterations 1
DILUPBiCGStab:  Solving for Uy, Initial residual = 0.000805796, Final residual = 9.45642e-09, No Iterations 1
DILUPBiCGStab:  Solving for h, Initial residual = 0.00166285, Final residual = 1.75034e-08, No Iterations 1
DICPCG:  Solving for p_rgh, Initial residual = 0.0518695, Final residual = 0.000348084, No Iterations 16
diagonal:  Solving for rho, Initial residual = 0, Final residual = 0, No Iterations 0
time step continuity errors : sum local = 2.82066e-08, global = 3.53968e-10, cumulative = -1.02652e-07
DICPCG:  Solving for p_rgh, Initial residual = 0.000419084, Final residual = 8.90325e-09, No Iterations 32
diagonal:  Solving for rho, Initial residual = 0, Final residual = 0, No Iterations 0
time step continuity errors : sum local = 4.40812e-10, global = -4.40812e-10, cumulative = -1.03093e-07
DILUPBiCGStab:  Solving for epsilon, Initial residual = 0.000305892, Final residual = 3.26151e-09, No Iterations 1
DILUPBiCGStab:  Solving for k, Initial residual = 0.000287484, Final residual = 4.43978e-09, No Iterations 1
ExecutionTime = 0.1 s  ClockTime = 0 s

Courant Number mean: 0.00740981 max: 0.0382221
Time = 100.35

diagonal:  Solving for rho, Initial residual = 0, Final residual = 0, No Iterations 0
DILUPBiCGStab:  Solving for Ux, Initial residual = 0.00217917, Final residual = 1.89257e-08, No Iterations 1
DILUPBiCGStab:  Solving for Uy, Initial residual = 0.00124044, Final residual = 1.37367e-08, No Iterations 1
DILUPBiCGStab:  Solving for h, Initial residual = 0.00130615, Final residual = 1.46681e-08, No Iterations 1
DICPCG:  Solving for p_rgh, Initial residual = 0.0256042, Final residual = 0.000204358, No Iterations 21
diagonal:  Solving for rho, Initial residual = 0, Final residual = 0, No Iterations 0
time step continuity errors : sum local = 1.87574e-08, global = 1.20367e-10, cumulative = -1.02972e-07
DICPCG:  Solving for p_rgh, Initial residual = 0.000234116, Final residual = 6.83944e-09, No Iterations 31
diagonal:  Solving for rho, Initial residual = 0, Final residual = 0, No Iterations 0
time step continuity errors : sum local = 2.22132e-10, global = -2.22132e-10, cumulative = -1.03194e-07
DILUPBiCGStab:  Solving for epsilon, Initial residual = 0.00030866, Final residual = 3.32428e-09, No Iterations 1
DILUPBiCGStab:  Solving for k, Initial residual = 0.000288541, Final residual = 4.45635e-09, No Iterations 1
ExecutionTime = 0.1 s  ClockTime = 0 s

Courant Number mean: 0.00740074 max: 0.0380707
Time = 100.36

diagonal:  Solving for rho, Initial residual = 0, Final residual = 0, No Iterations 0
DILUPBiCGStab:  Solving for Ux, Initial residual = 0.00247289, Final residual = 2.08222e-08, No Iterations 1
DILUPBiCGStab:  Solving for Uy, Initial residual = 0.00147305, Final residual = 1.60467e-08, No Iterations 1
DILUPBiCGStab:  Solving for h, Initial residual = 0.000851895, Final residual = 1.1057e-08, No Iterations 1
DICPCG:  Solving for p_rgh, Initial residual = 0.00580317, Final residual = 5.42537e-05, No Iterations 22
diagonal:  Solving for rho, Initial residual = 0, Final residual = 0, No Iterations 0
time step continuity errors : sum local = 5.30088e-09, global = -8.63842e-12, cumulative = -1.03203e-07
DICPCG:  Solving for p_rgh, Initial residual = 7.96675e-05, Final residual = 5.47689e-09, No Iterations 30
diagonal:  Solving for rho, Initial residual = 0, Final residual = 0, No Iterations 0
time step continuity errors : sum local = 7.91757e-12, global = 4.23598e-12, cumulative = -1.03199e-07
DILUPBiCGStab:  Solving for epsilon, Initial residual = 0.000311837, Final residual = 3.39469e-09, No Iterations 1
DILUPBiCGStab:  Solving for k, Initial residual = 0.000290782, Final residual = 4.48448e-09, No Iterations 1
ExecutionTime = 0.11 s  ClockTime = 0 s

Courant Number mean: 0.00739201 max: 0.037923
Time = 100.37

diagonal:  Solving for rho, Initial residual = 0, Final residual = 0, No Iterations 0
DILUPBiCGStab:  Solving for Ux, Initial residual = 0.0023984, Final residual = 2.03625e-08, No Iterations 1
DILUPBiCGStab:  Solving for Uy, Initial residual = 0.00145647, Final residual = 1.57473e-08, No Iterations 1
DILUPBiCGStab:  Solving for h, Initial residual = 0.000588067, Final residual = 9.09649e-09, No Iterations 1
DICPCG:  Solving for p_rgh, Initial residual = 0.0203033, Final residual = 0.000188987, No Iterations 18
diagonal:  Solving for rho, Initial residual = 0, Final residual = 0, No Iterations 0
time step continuity errors : sum local = 1.80785e-08, global = 2.28958e-10, cumulative = -1.0297e-07
DICPCG:  Solving for p_rgh, Initial residual = 0.000268832, Final residual = 5.84004e-09, No Iterations 32
diagonal:  Solving for rho, Initial residual = 0, Final residual = 0, No Iterations 0
time step continuity errors : sum local = 2.02423e-10, global = 2.02382e-10, cumulative = -1.02767e-07
DILUPBiCGStab:  Solving for epsilon, Initial residual = 0.00031606, Final residual = 3.48e-09, No Iterations 1
DILUPBiCGStab:  Solving for k, Initial residual = 0.00029376, Final residual = 4.53367e-09, No Iterations 1
ExecutionTime = 0.11 s  ClockTime = 0 s

Courant Number mean: 0.00738455 max: 0.0377956
Time = 100.38

diagonal:  Solving for rho, Initial residual = 0, Final residual = 0, No Iterations 0
DILUPBiCGStab:  Solving for Ux, Initial residual = 0.00201147, Final residual = 1.78522e-08, No Iterations 1
DILUPBiCGStab:  Solving for Uy, Initial residual = 0.00122218, Final residual = 1.31625e-08, No Iterations 1
DILUPBiCGStab:  Solving for h, Initial residual = 0.000982123, Final residual = 1.20348e-08, No Iterations 1
DICPCG:  Solving for p_rgh, Initial residual = 0.0329884, Final residual = 0.00022646, No Iterations 20
diagonal:  Solving for rho, Initial residual = 0, Final residual = 0, No Iterations 0
time step continuity errors : sum local = 2.04979e-08, global = 8.19218e-11, cumulative = -1.02686e-07
DICPCG:  Solving for p_rgh, Initial residual = 0.000374428, Final residual = 9.36639e-09, No Iterations 32
diagonal:  Solving for rho, Initial residual = 0, Final residual = 0, No Iterations 0
time step continuity errors : sum local = 3.44919e-10, global = 3.44919e-10, cumulative = -1.02341e-07
DILUPBiCGStab:  Solving for epsilon, Initial residual = 0.00032141, Final residual = 3.57679e-09, No Iterations 1
DILUPBiCGStab:  Solving for k, Initial residual = 0.000297366, Final residual = 4.60257e-09, No Iterations 1
ExecutionTime = 0.11 s  ClockTime = 0 s

Courant Number mean: 0.00737905 max: 0.0376999
Time = 100.39

diagonal:  Solving for rho, Initial residual = 0, Final residual = 0, No Iterations 0
DILUPBiCGStab:  Solving for Ux, Initial residual = 0.00141374, Final residual = 1.3715e-08, No Iterations 1
DILUPBiCGStab:  Solving for Uy, Initial residual = 0.000838525, Final residual = 9.14382e-09, No Iterations 1
DILUPBiCGStab:  Solving for h, Initial residual = 0.00127247, Final residual = 1.41026e-08, No Iterations 1
DICPCG:  Solving for p_rgh, Initial residual = 0.0447979, Final residual = 0.000340849, No Iterations 20
diagonal:  Solving for rho, Initial residual = 0, Final residual = 0, No Iterations 0
time step continuity errors : sum local = 2.78397e-08, global = 2.51943e-10, cumulative = -1.02089e-07
DICPCG:  Solving for p_rgh, Initial residual = 0.00056069, Final residual = 8.61208e-09, No Iterations 33
diagonal:  Solving for rho, Initial residual = 0, Final residual = 0, No Iterations 0
time step continuity errors : sum local = 4.16498e-10, global = 4.16498e-10, cumulative = -1.01672e-07
DILUPBiCGStab:  Solving for epsilon, Initial residual = 0.000327815, Final residual = 3.68634e-09, No Iterations 1
DILUPBiCGStab:  Solving for k, Initial residual = 0.000301822, Final residual = 4.69479e-09, No Iterations 1
ExecutionTime = 0.11 s  ClockTime = 0 s

Courant Number mean: 0.00737582 max: 0.0376408
Time = 100.4

diagonal:  Solving for rho, Initial residual = 0, Final residual = 0, No Iterations 0
DILUPBiCGStab:  Solving for Ux, Initial residual = 0.000718698, Final residual = 8.03644e-09, No Iterations 1
DILUPBiCGStab:  Solving for Uy, Initial residual = 0.000438895, Final residual = 5.02815e-09, No Iterations 1
DILUPBiCGStab:  Solving for h, Initial residual = 0.00142016, Final residual = 1.51153e-08, No Iterations 1
DICPCG:  Solving for p_rgh, Initial residual = 0.0524301, Final residual = 0.000446262, No Iterations 20
diagonal:  Solving for rho, Initial residual = 0, Final residual = 0, No Iterations 0
time step continuity errors : sum local = 3.15918e-08, global = 3.10034e-10, cumulative = -1.01362e-07
DICPCG:  Solving for p_rgh, Initial residual = 0.000690197, Final residual = 8.56423e-09, No Iterations 33
diagonal:  Solving for rho, Initial residual = 0, Final residual = 0, No Iterations 0
time step continuity errors : sum local = 4.15775e-10, global = 4.15775e-10, cumulative = -1.00946e-07
DILUPBiCGStab:  Solving for epsilon, Initial residual = 0.000334149, Final residual = 3.7966e-09, No Iterations 1
DILUPBiCGStab:  Solving for k, Initial residual = 0.000306119, Final residual = 4.7959e-09, No Iterations 1
ExecutionTime = 0.12 s  ClockTime = 0 s

Courant Number mean: 0.00737478 max: 0.037616
Time = 100.41

diagonal:  Solving for rho, Initial residual = 0, Final residual = 0, No Iterations 0
DILUPBiCGStab:  Solving for Ux, Initial residual = 0.000534659, Final residual = 6.22908e-09, No Iterations 1
DILUPBiCGStab:  Solving for Uy, Initial residual = 0.000397779, Final residual = 3.71288e-09, No Iterations 1
DILUPBiCGStab:  Solving for h, Initial residual = 0.00141941, Final residual = 1.51027e-08, No Iterations 1
DICPCG:  Solving for p_rgh, Initial residual = 0.0533209, Final residual = 0.000497152, No Iterations 17
diagonal:  Solving for rho, Initial residual = 0, Final residual = 0, No Iterations 0
time step continuity errors : sum local = 3.0295e-08, global = 1.22452e-09, cumulative = -9.97219e-08
DICPCG:  Solving for p_rgh, Initial residual = 0.000561651, Final residual = 7.33833e-09, No Iterations 33
diagonal:  Solving for rho, Initial residual = 0, Final residual = 0, No Iterations 0
time step continuity errors : sum local = 3.49528e-10, global = 3.49528e-10, cumulative = -9.93723e-08
DILUPBiCGStab:  Solving for epsilon, Initial residual = 0.000341228, Final residual = 3.91757e-09, No Iterations 1
DILUPBiCGStab:  Solving for k, Initial residual = 0.000310914, Final residual = 4.91442e-09, No Iterations 1
ExecutionTime = 0.12 s  ClockTime = 0 s

Courant Number mean: 0.00737556 max: 0.0376215
Time = 100.42

diagonal:  Solving for rho, Initial residual = 0, Final residual = 0, No Iterations 0
DILUPBiCGStab:  Solving for Ux, Initial residual = 0.00101311, Final residual = 1.02838e-08, No Iterations 1
DILUPBiCGStab:  Solving for Uy, Initial residual = 0.000634971, Final residual = 6.45295e-09, No Iterations 1
DILUPBiCGStab:  Solving for h, Initial residual = 0.00128496, Final residual = 1.41707e-08, No Iterations 1
DICPCG:  Solving for p_rgh, Initial residual = 0.0335677, Final residual = 0.000227327, No Iterations 16
diagonal:  Solving for rho, Initial residual = 0, Final residual = 0, No Iterations 0
time step continuity errors : sum local = 1.57008e-08, global = -9.00296e-11, cumulative = -9.94624e-08
DICPCG:  Solving for p_rgh, Initial residual = 0.000285821, Final residual = 6.35116e-09, No Iterations 32
diagonal:  Solving for rho, Initial residual = 0, Final residual = 0, No Iterations 0
time step continuity errors : sum local = 2.36863e-10, global = 2.36863e-10, cumulative = -9.92255e-08
DILUPBiCGStab:  Solving for epsilon, Initial residual = 0.000348739, Final residual = 4.04502e-09, No Iterations 1
DILUPBiCGStab:  Solving for k, Initial residual = 0.000316028, Final residual = 5.04497e-09, No Iterations 1
ExecutionTime = 0.12 s  ClockTime = 0 s

Courant Number mean: 0.00737751 max: 0.0376454
Time = 100.43

diagonal:  Solving for rho, Initial residual = 0, Final residual = 0, No Iterations 0
DILUPBiCGStab:  Solving for Ux, Initial residual = 0.00135998, Final residual = 1.27232e-08, No Iterations 1
DILUPBiCGStab:  Solving for Uy, Initial residual = 0.000818975, Final residual = 8.6519e-09, No Iterations 1
DILUPBiCGStab:  Solving for h, Initial residual = 0.0010558, Final residual = 1.25807e-08, No Iterations 1
DICPCG:  Solving for p_rgh, Initial residual = 0.0153403, Final residual = 0.000123759, No Iterations 21
diagonal:  Solving for rho, Initial residual = 0, Final residual = 0, No Iterations 0
time step continuity errors : sum local = 9.27213e-09, global = -2.28838e-10, cumulative = -9.94543e-08
DICPCG:  Solving for p_rgh, Initial residual = 0.000146367, Final residual = 4.0904e-09, No Iterations 31
diagonal:  Solving for rho, Initial residual = 0, Final residual = 0, No Iterations 0
time step continuity errors : sum local = 1.00614e-10, global = 1.00614e-10, cumulative = -9.93537e-08
DILUPBiCGStab:  Solving for epsilon, Initial residual = 0.000356654, Final residual = 4.17604e-09, No Iterations 1
DILUPBiCGStab:  Solving for k, Initial residual = 0.000321301, Final residual = 5.18186e-09, No Iterations 1
ExecutionTime = 0.12 s  ClockTime = 0 s

Courant Number mean: 0.00737994 max: 0.0376757
Time = 100.44

diagonal:  Solving for rho, Initial residual = 0, Final residual = 0, No Iterations 0
DILUPBiCGStab:  Solving for Ux, Initial residual = 0.0014861, Final residual = 1.34702e-08, No Iterations 1
DILUPBiCGStab:  Solving for Uy, Initial residual = 0.000885868, Final residual = 9.41512e-09, No Iterations 1
DILUPBiCGStab:  Solving for h, Initial residual = 0.00078057, Final residual = 1.0638e-08, No Iterations 1
DICPCG:  Solving for p_rgh, Initial residual = 0.0072566, Final residual = 6.80389e-05, No Iterations 21
diagonal:  Solving for rho, Initial residual = 0, Final residual = 0, No Iterations 0
time step continuity errors : sum local = 5.29704e-09, global = -1.27934e-10, cumulative = -9.94817e-08
DICPCG:  Solving for p_rgh, Initial residual = 9.17515e-05, Final residual = 7.55286e-09, No Iterations 29
diagonal:  Solving for rho, Initial residual = 0, Final residual = 0, No Iterations 0
time step continuity errors : sum local = 3.51709e-11, global = -3.5024e-11, cumulative = -9.95167e-08
DILUPBiCGStab:  Solving for epsilon, Initial residual = 0.000364574, Final residual = 4.30886e-09, No Iterations 1
DILUPBiCGStab:  Solving for k, Initial residual = 0.000326644, Final residual = 5.32126e-09, No Iterations 1
ExecutionTime = 0.12 s  ClockTime = 0 s

Courant Number mean: 0.0073821 max: 0.0377009
Time = 100.45

diagonal:  Solving for rho, Initial residual = 0, Final residual = 0, No Iterations 0
DILUPBiCGStab:  Solving for Ux, Initial residual = 0.00139044, Final residual = 1.27862e-08, No Iterations 1
DILUPBiCGStab:  Solving for Uy, Initial residual = 0.000843051, Final residual = 8.84084e-09, No Iterations 1
DILUPBiCGStab:  Solving for h, Initial residual = 0.000540022, Final residual = 8.89152e-09, No Iterations 1
DICPCG:  Solving for p_rgh, Initial residual = 0.0179245, Final residual = 0.000122609, No Iterations 20
diagonal:  Solving for rho, Initial residual = 0, Final residual = 0, No Iterations 0
time step continuity errors : sum local = 9.17711e-09, global = -8.34862e-11, cumulative = -9.96002e-08
DICPCG:  Solving for p_rgh, Initial residual = 0.000185093, Final residual = 9.94027e-09, No Iterations 31
diagonal:  Solving for rho, Initial residual = 0, Final residual = 0, No Iterations 0
time step continuity errors : sum local = 1.49085e-10, global = -1.49085e-10, cumulative = -9.97493e-08
DILUPBiCGStab:  Solving for epsilon, Initial residual = 0.000372242, Final residual = 4.4416e-09, No Iterations 1
DILUPBiCGStab:  Solving for k, Initial residual = 0.000331807, Final residual = 5.46011e-09, No Iterations 1
ExecutionTime = 0.13 s  ClockTime = 0 s

Courant Number mean: 0.00738342 max: 0.0377115
Time = 100.46

diagonal:  Solving for rho, Initial residual = 0, Final residual = 0, No Iterations 0
DILUPBiCGStab:  Solving for Ux, Initial residual = 0.00111927, Final residual = 1.08918e-08, No Iterations 1
DILUPBiCGStab:  Solving for Uy, Initial residual = 0.00070082, Final residual = 7.11109e-09, No Iterations 1
DILUPBiCGStab:  Solving for h, Initial residual = 0.000706521, Final residual = 9.78825e-09, No Iterations 1
DICPCG:  Solving for p_rgh, Initial residual = 0.0276185, Final residual = 0.00021174, No Iterations 20
diagonal:  Solving for rho, Initial residual = 0, Final residual = 0, No Iterations 0
time step continuity errors : sum local = 1.50688e-08, global = -3.18422e-10, cumulative = -1.00068e-07
DICPCG:  Solving for p_rgh, Initial residual = 0.000321984, Final residual = 9.07402e-09, No Iterations 32
diagonal:  Solving for rho, Initial residual = 0, Final residual = 0, No Iterations 0
time step continuity errors : sum local = 2.26447e-10, global = -2.26447e-10, cumulative = -1.00294e-07
DILUPBiCGStab:  Solving for epsilon, Initial residual = 0.000379587, Final residual = 4.5727e-09, No Iterations 1
DILUPBiCGStab:  Solving for k, Initial residual = 0.000336564, Final residual = 5.59184e-09, No Iterations 1
ExecutionTime = 0.13 s  ClockTime = 0 s

Courant Number mean: 0.00738348 max: 0.0377014
Time = 100.47

diagonal:  Solving for rho, Initial residual = 0, Final residual = 0, No Iterations 0
DILUPBiCGStab:  Solving for Ux, Initial residual = 0.000751963, Final residual = 8.01614e-09, No Iterations 1
DILUPBiCGStab:  Solving for Uy, Initial residual = 0.000509516, Final residual = 4.69855e-09, No Iterations 1
DILUPBiCGStab:  Solving for h, Initial residual = 0.000865746, Final residual = 1.09347e-08, No Iterations 1
DICPCG:  Solving for p_rgh, Initial residual = 0.0354218, Final residual = 0.000303635, No Iterations 20
diagonal:  Solving for rho, Initial residual = 0, Final residual = 0, No Iterations 0
time step continuity errors : sum local = 1.98579e-08, global = -3.23682e-10, cumulative = -1.00618e-07
DICPCG:  Solving for p_rgh, Initial residual = 0.000426732, Final residual = 5.69387e-09, No Iterations 33
diagonal:  Solving for rho, Initial residual = 0, Final residual = 0, No Iterations 0
time step continuity errors : sum local = 2.59512e-10, global = -2.59512e-10, cumulative = -1.00877e-07
DILUPBiCGStab:  Solving for epsilon, Initial residual = 0.000387194, Final residual = 4.70119e-09, No Iterations 1
DILUPBiCGStab:  Solving for k, Initial residual = 0.000340852, Final residual = 5.71204e-09, No Iterations 1
ExecutionTime = 0.13 s  ClockTime = 0 s

Courant Number mean: 0.0073821 max: 0.0376687
Time = 100.48

diagonal:  Solving for rho, Initial residual = 0, Final residual = 0, No Iterations 0
DILUPBiCGStab:  Solving for Ux, Initial residual = 0.00039981, Final residual = 5.09617e-09, No Iterations 1
DILUPBiCGStab:  Solving for Uy, Initial residual = 0.000356534, Final residual = 3.45982e-09, No Iterations 1
DILUPBiCGStab:  Solving for h, Initial residual = 0.000933524, Final residual = 1.14057e-08, No Iterations 1
DICPCG:  Solving for p_rgh, Initial residual = 0.0373954, Final residual = 0.000327914, No Iterations 20
diagonal:  Solving for rho, Initial residual = 0, Final residual = 0, No Iterations 0
time step continuity errors : sum local = 1.98772e-08, global = -3.62995e-10, cumulative = -1.0124e-07
DICPCG:  Solving for p_rgh, Initial residual = 0.000372017, Final residual = 8.83172e-09, No Iterations 32
diagonal:  Solving for rho, Initial residual = 0, Final residual = 0, No Iterations 0
time step continuity errors : sum local = 2.4848e-10, global = -2.4848e-10, cumulative = -1.01489e-07
DILUPBiCGStab:  Solving for epsilon, Initial residual = 0.000394767, Final residual = 4.82758e-09, No Iterations 1
DILUPBiCGStab:  Solving for k, Initial residual = 0.000344721, Final residual = 5.82157e-09, No Iterations 1
ExecutionTime = 0.13 s  ClockTime = 0 s

Courant Number mean: 0.00737938 max: 0.0376149
Time = 100.49

diagonal:  Solving for rho, Initial residual = 0, Final residual = 0, No Iterations 0
DILUPBiCGStab:  Solving for Ux, Initial residual = 0.000572333, Final residual = 6.66336e-09, No Iterations 1
DILUPBiCGStab:  Solving for Uy, Initial residual = 0.000353243, Final residual = 4.0865e-09, No Iterations 1
DILUPBiCGStab:  Solving for h, Initial residual = 0.000909777, Final residual = 1.12138e-08, No Iterations 1
DICPCG:  Solving for p_rgh, Initial residual = 0.0281861, Final residual = 0.00023284, No Iterations 16
diagonal:  Solving for rho, Initial residual = 0, Final residual = 0, No Iterations 0
time step continuity errors : sum local = 1.55511e-08, global = -5.62718e-10, cumulative = -1.02052e-07
DICPCG:  Solving for p_rgh, Initial residual = 0.000269754, Final residual = 6.02957e-09, No Iterations 32
diagonal:  Solving for rho, Initial residual = 0, Final residual = 0, No Iterations 0
time step continuity errors : sum local = 2.00384e-10, global = -2.00384e-10, cumulative = -1.02252e-07
DILUPBiCGStab:  Solving for epsilon, Initial residual = 0.000402166, Final residual = 4.9536e-09, No Iterations 1
DILUPBiCGStab:  Solving for k, Initial residual = 0.000348796, Final residual = 5.92423e-09, No Iterations 1
ExecutionTime = 0.14 s  ClockTime = 0 s

Courant Number mean: 0.00737562 max: 0.0375447
Time = 100.5

diagonal:  Solving for rho, Initial residual = 0, Final residual = 0, No Iterations 0
DILUPBiCGStab:  Solving for Ux, Initial residual = 0.000869071, Final residual = 9.10085e-09, No Iterations 1
DILUPBiCGStab:  Solving for Uy, Initial residual = 0.000438929, Final residual = 5.31945e-09, No Iterations 1
DILUPBiCGStab:  Solving for h, Initial residual = 0.000809721, Final residual = 1.04755e-08, No Iterations 1
DICPCG:  Solving for p_rgh, Initial residual = 0.0177875, Final residual = 0.000170735, No Iterations 17
diagonal:  Solving for rho, Initial residual = 0, Final residual = 0, No Iterations 0
time step continuity errors : sum local = 1.23215e-08, global = 3.95177e-10, cumulative = -1.01857e-07
DICPCG:  Solving for p_rgh, Initial residual = 0.000194559, Final residual = 6.96845e-09, No Iterations 31
diagonal:  Solving for rho, Initial residual = 0, Final residual = 0, No Iterations 0
time step continuity errors : sum local = 1.27166e-10, global = -1.27166e-10, cumulative = -1.01984e-07
DILUPBiCGStab:  Solving for epsilon, Initial residual = 0.000409551, Final residual = 5.08146e-09, No Iterations 1
DILUPBiCGStab:  Solving for k, Initial residual = 0.000352771, Final residual = 6.02423e-09, No Iterations 1
ExecutionTime = 0.14 s  ClockTime = 0 s

Courant Number mean: 0.00737124 max: 0.037465
Time = 100.51

diagonal:  Solving for rho, Initial residual = 0, Final residual = 0, No Iterations 0
DILUPBiCGStab:  Solving for Ux, Initial residual = 0.00104659, Final residual = 1.04581e-08, No Iterations 1
DILUPBiCGStab:  Solving for Uy, Initial residual = 0.000544364, Final residual = 6.37281e-09, No Iterations 1
DILUPBiCGStab:  Solving for h, Initial residual = 0.000658701, Final residual = 9.39193e-09, No Iterations 1
DICPCG:  Solving for p_rgh, Initial residual = 0.00753845, Final residual = 7.32272e-05, No Iterations 21
diagonal:  Solving for rho, Initial residual = 0, Final residual = 0, No Iterations 0
time step continuity errors : sum local = 5.50691e-09, global = -5.27478e-11, cumulative = -1.02037e-07
DICPCG:  Solving for p_rgh, Initial residual = 8.33588e-05, Final residual = 9.99039e-09, No Iterations 29
diagonal:  Solving for rho, Initial residual = 0, Final residual = 0, No Iterations 0
time step continuity errors : sum local = 4.3212e-11, global = -4.3212e-11, cumulative = -1.0208e-07
DILUPBiCGStab:  Solving for epsilon, Initial residual = 0.000417371, Final residual = 5.21291e-09, No Iterations 1
DILUPBiCGStab:  Solving for k, Initial residual = 0.000357893, Final residual = 6.12756e-09, No Iterations 1
ExecutionTime = 0.14 s  ClockTime = 0 s

Courant Number mean: 0.00736674 max: 0.0373831
Time = 100.52

diagonal:  Solving for rho, Initial residual = 0, Final residual = 0, No Iterations 0
DILUPBiCGStab:  Solving for Ux, Initial residual = 0.00108859, Final residual = 1.0742e-08, No Iterations 1
DILUPBiCGStab:  Solving for Uy, Initial residual = 0.000586333, Final residual = 6.76657e-09, No Iterations 1
DILUPBiCGStab:  Solving for h, Initial residual = 0.00053354, Final residual = 8.70075e-09, No Iterations 1
DICPCG:  Solving for p_rgh, Initial residual = 0.006479, Final residual = 4.91454e-05, No Iterations 21
diagonal:  Solving for rho, Initial residual = 0, Final residual = 0, No Iterations 0
time step continuity errors : sum local = 3.7664e-09, global = -1.11685e-10, cumulative = -1.02192e-07
DICPCG:  Solving for p_rgh, Initial residual = 7.31878e-05, Final residual = 9.85406e-09, No Iterations 28
diagonal:  Solving for rho, Initial residual = 0, Final residual = 0, No Iterations 0
time step continuity errors : sum local = 3.72084e-11, global = 3.71322e-11, cumulative = -1.02154e-07
DILUPBiCGStab:  Solving for epsilon, Initial residual = 0.00042735, Final residual = 5.34907e-09, No Iterations 1
DILUPBiCGStab:  Solving for k, Initial residual = 0.000363694, Final residual = 6.24251e-09, No Iterations 1
ExecutionTime = 0.14 s  ClockTime = 0 s

Courant Number mean: 0.00736251 max: 0.0373058
Time = 100.53

diagonal:  Solving for rho, Initial residual = 0, Final residual = 0, No Iterations 0
DILUPBiCGStab:  Solving for Ux, Initial residual = 0.00100443, Final residual = 1.00985e-08, No Iterations 1
DILUPBiCGStab:  Solving for Uy, Initial residual = 0.000540388, Final residual = 6.23841e-09, No Iterations 1
DILUPBiCGStab:  Solving for h, Initial residual = 0.000658654, Final residual = 9.59242e-09, No Iterations 1
DICPCG:  Solving for p_rgh, Initial residual = 0.0125998, Final residual = 9.17906e-05, No Iterations 20
diagonal:  Solving for rho, Initial residual = 0, Final residual = 0, No Iterations 0
time step continuity errors : sum local = 6.88584e-09, global = -1.34728e-10, cumulative = -1.02289e-07
DICPCG:  Solving for p_rgh, Initial residual = 0.000141638, Final residual = 6.63852e-09, No Iterations 31
diagonal:  Solving for rho, Initial residual = 0, Final residual = 0, No Iterations 0
time step continuity errors : sum local = 1.01844e-10, global = 1.01844e-10, cumulative = -1.02187e-07
DILUPBiCGStab:  Solving for epsilon, Initial residual = 0.000437808, Final residual = 5.49082e-09, No Iterations 1
DILUPBiCGStab:  Solving for k, Initial residual = 0.00036994, Final residual = 6.3658e-09, No Iterations 1
ExecutionTime = 0.15 s  ClockTime = 0 s

Courant Number mean: 0.00735888 max: 0.0372386
Time = 100.54

diagonal:  Solving for rho, Initial residual = 0, Final residual = 0, No Iterations 0
DILUPBiCGStab:  Solving for Ux, Initial residual = 0.000821992, Final residual = 8.63445e-09, No Iterations 1
DILUPBiCGStab:  Solving for Uy, Initial residual = 0.000441987, Final residual = 5.10189e-09, No Iterations 1
DILUPBiCGStab:  Solving for h, Initial residual = 0.000789943, Final residual = 1.04704e-08, No Iterations 1
DICPCG:  Solving for p_rgh, Initial residual = 0.017635, Final residual = 0.000127019, No Iterations 20
diagonal:  Solving for rho, Initial residual = 0, Final residual = 0, No Iterations 0
time step continuity errors : sum local = 9.16217e-09, global = 2.74519e-12, cumulative = -1.02185e-07
DICPCG:  Solving for p_rgh, Initial residual = 0.000192875, Final residual = 6.50447e-09, No Iterations 31
diagonal:  Solving for rho, Initial residual = 0, Final residual = 0, No Iterations 0
time step continuity errors : sum local = 1.42768e-10, global = 1.42768e-10, cumulative = -1.02042e-07
DILUPBiCGStab:  Solving for epsilon, Initial residual = 0.000448825, Final residual = 5.6388e-09, No Iterations 1
DILUPBiCGStab:  Solving for k, Initial residual = 0.000376748, Final residual = 6.49889e-09, No Iterations 1
ExecutionTime = 0.15 s  ClockTime = 0 s

Courant Number mean: 0.00735606 max: 0.0371845
Time = 100.55

diagonal:  Solving for rho, Initial residual = 0, Final residual = 0, No Iterations 0
DILUPBiCGStab:  Solving for Ux, Initial residual = 0.000583561, Final residual = 6.63919e-09, No Iterations 1
DILUPBiCGStab:  Solving for Uy, Initial residual = 0.000343366, Final residual = 3.98481e-09, No Iterations 1
DILUPBiCGStab:  Solving for h, Initial residual = 0.000873693, Final residual = 1.10238e-08, No Iterations 1
DICPCG:  Solving for p_rgh, Initial residual = 0.0207299, Final residual = 0.000153017, No Iterations 20
diagonal:  Solving for rho, Initial residual = 0, Final residual = 0, No Iterations 0
time step continuity errors : sum local = 1.04843e-08, global = 1.94216e-11, cumulative = -1.02022e-07
DICPCG:  Solving for p_rgh, Initial residual = 0.000228576, Final residual = 5.42896e-09, No Iterations 32
diagonal:  Solving for rho, Initial residual = 0, Final residual = 0, No Iterations 0
time step continuity errors : sum local = 1.56436e-10, global = 1.56436e-10, cumulative = -1.01866e-07
DILUPBiCGStab:  Solving for epsilon, Initial residual = 0.000460404, Final residual = 5.79263e-09, No Iterations 1
DILUPBiCGStab:  Solving for k, Initial residual = 0.000383948, Final residual = 6.64321e-09, No Iterations 1
ExecutionTime = 0.15 s  ClockTime = 0 s

Courant Number mean: 0.00735409 max: 0.0371443
Time = 100.56

diagonal:  Solving for rho, Initial residual = 0, Final residual = 0, No Iterations 0
DILUPBiCGStab:  Solving for Ux, Initial residual = 0.000344566, Final residual = 4.5201e-09, No Iterations 1
DILUPBiCGStab:  Solving for Uy, Initial residual = 0.000310603, Final residual = 3.29917e-09, No Iterations 1
DILUPBiCGStab:  Solving for h, Initial residual = 0.000902158, Final residual = 1.12056e-08, No Iterations 1
DICPCG:  Solving for p_rgh, Initial residual = 0.0208632, Final residual = 0.000159204, No Iterations 20
diagonal:  Solving for rho, Initial residual = 0, Final residual = 0, No Iterations 0
time step continuity errors : sum local = 1.02757e-08, global = 3.40975e-11, cumulative = -1.01832e-07
DICPCG:  Solving for p_rgh, Initial residual = 0.000228622, Final residual = 5.68626e-09, No Iterations 32
diagonal:  Solving for rho, Initial residual = 0, Final residual = 0, No Iterations 0
time step continuity errors : sum local = 1.43993e-10, global = 1.43993e-10, cumulative = -1.01688e-07
DILUPBiCGStab:  Solving for epsilon, Initial residual = 0.000472526, Final residual = 5.95154e-09, No Iterations 1
DILUPBiCGStab:  Solving for k, Initial residual = 0.000391487, Final residual = 6.79873e-09, No Iterations 1
ExecutionTime = 0.15 s  ClockTime = 0 s

Courant Number mean: 0.00735289 max: 0.0371166
Time = 100.57

diagonal:  Solving for rho, Initial residual = 0, Final residual = 0, No Iterations 0
DILUPBiCGStab:  Solving for Ux, Initial residual = 0.000439422, Final residual = 5.24416e-09, No Iterations 1
DILUPBiCGStab:  Solving for Uy, Initial residual = 0.000353052, Final residual = 3.21122e-09, No Iterations 1
DILUPBiCGStab:  Solving for h, Initial residual = 0.000877377, Final residual = 1.10312e-08, No Iterations 1
DICPCG:  Solving for p_rgh, Initial residual = 0.0177395, Final residual = 0.000148333, No Iterations 16
diagonal:  Solving for rho, Initial residual = 0, Final residual = 0, No Iterations 0
time step continuity errors : sum local = 9.1127e-09, global = 1.91116e-10, cumulative = -1.01497e-07
DICPCG:  Solving for p_rgh, Initial residual = 0.000181149, Final residual = 4.05768e-09, No Iterations 32
diagonal:  Solving for rho, Initial residual = 0, Final residual = 0, No Iterations 0
time step continuity errors : sum local = 1.10542e-10, global = 1.10542e-10, cumulative = -1.01386e-07
DILUPBiCGStab:  Solving for epsilon, Initial residual = 0.00048536, Final residual = 6.11563e-09, No Iterations 1
DILUPBiCGStab:  Solving for k, Initial residual = 0.000399288, Final residual = 6.96363e-09, No Iterations 1
ExecutionTime = 0.16 s  ClockTime = 0 s

Courant Number mean: 0.00735228 max: 0.0370981
Time = 100.58

diagonal:  Solving for rho, Initial residual = 0, Final residual = 0, No Iterations 0
DILUPBiCGStab:  Solving for Ux, Initial residual = 0.000575294, Final residual = 6.35197e-09, No Iterations 1
DILUPBiCGStab:  Solving for Uy, Initial residual = 0.000410336, Final residual = 3.54816e-09, No Iterations 1
DILUPBiCGStab:  Solving for h, Initial residual = 0.000809794, Final residual = 1.05699e-08, No Iterations 1
DICPCG:  Solving for p_rgh, Initial residual = 0.0111536, Final residual = 9.61718e-05, No Iterations 17
diagonal:  Solving for rho, Initial residual = 0, Final residual = 0, No Iterations 0
time step continuity errors : sum local = 5.95351e-09, global = -3.74996e-10, cumulative = -1.01761e-07
DICPCG:  Solving for p_rgh, Initial residual = 0.000122083, Final residual = 4.30571e-09, No Iterations 31
diagonal:  Solving for rho, Initial residual = 0, Final residual = 0, No Iterations 0
time step continuity errors : sum local = 6.37686e-11, global = 6.37686e-11, cumulative = -1.01697e-07
DILUPBiCGStab:  Solving for epsilon, Initial residual = 0.000498403, Final residual = 6.30056e-09, No Iterations 1
DILUPBiCGStab:  Solving for k, Initial residual = 0.000407231, Final residual = 7.14559e-09, No Iterations 1
ExecutionTime = 0.16 s  ClockTime = 0 s

Courant Number mean: 0.00735198 max: 0.0370846
Time = 100.59

diagonal:  Solving for rho, Initial residual = 0, Final residual = 0, No Iterations 0
DILUPBiCGStab:  Solving for Ux, Initial residual = 0.000654159, Final residual = 6.98705e-09, No Iterations 1
DILUPBiCGStab:  Solving for Uy, Initial residual = 0.000446756, Final residual = 3.90048e-09, No Iterations 1
DILUPBiCGStab:  Solving for h, Initial residual = 0.000715379, Final residual = 9.92502e-09, No Iterations 1
DICPCG:  Solving for p_rgh, Initial residual = 0.00389432, Final residual = 3.12377e-05, No Iterations 21
diagonal:  Solving for rho, Initial residual = 0, Final residual = 0, No Iterations 0
time step continuity errors : sum local = 2.05702e-09, global = -1.34269e-10, cumulative = -1.01832e-07
[...]
DILUPBiCGStab:  Solving for Ux, Initial residual = 0.000137124, Final residual = 1.70074e-09, No Iterations 1
DILUPBiCGStab:  Solving for Uy, Initial residual = 0.000107726, Final residual = 1.78976e-09, No Iterations 1
DILUPBiCGStab:  Solving for h, Initial residual = 0.000570627, Final residual = 7.66789e-09, No Iterations 1
DICPCG:  Solving for p_rgh, Initial residual = 0.000653958, Final residual = 5.289e-06, No Iterations 21
diagonal:  Solving for rho, Initial residual = 0, Final residual = 0, No Iterations 0
time step continuity errors : sum local = 4.61066e-10, global = -1.27139e-10, cumulative = -1.16452e-07
DICPCG:  Solving for p_rgh, Initial residual = 8.35574e-06, Final residual = 7.38745e-09, No Iterations 27
diagonal:  Solving for rho, Initial residual = 0, Final residual = 0, No Iterations 0
time step continuity errors : sum local = 7.83056e-13, global = -5.21695e-13, cumulative = -1.16453e-07
DILUPBiCGStab:  Solving for epsilon, Initial residual = 0.00127423, Final residual = 2.6857e-08, No Iterations 1
DILUPBiCGStab:  Solving for k, Initial residual = 0.000924651, Final residual = 2.95743e-08, No Iterations 1
ExecutionTime = 0.44 s  ClockTime = 0 s

Courant Number mean: 0.00723727 max: 0.0342861
Time = 101.78

diagonal:  Solving for rho, Initial residual = 0, Final residual = 0, No Iterations 0
DILUPBiCGStab:  Solving for Ux, Initial residual = 0.000135743, Final residual = 1.69595e-09, No Iterations 1
DILUPBiCGStab:  Solving for Uy, Initial residual = 0.000106561, Final residual = 1.7661e-09, No Iterations 1
DILUPBiCGStab:  Solving for h, Initial residual = 0.000570493, Final residual = 7.67686e-09, No Iterations 1
DICPCG:  Solving for p_rgh, Initial residual = 0.000647686, Final residual = 5.14623e-06, No Iterations 21
diagonal:  Solving for rho, Initial residual = 0, Final residual = 0, No Iterations 0
time step continuity errors : sum local = 4.51005e-10, global = -1.27289e-10, cumulative = -1.1658e-07
DICPCG:  Solving for p_rgh, Initial residual = 8.21562e-06, Final residual = 7.24145e-09, No Iterations 27
diagonal:  Solving for rho, Initial residual = 0, Final residual = 0, No Iterations 0
time step continuity errors : sum local = 7.36191e-13, global = -4.74655e-13, cumulative = -1.1658e-07
DILUPBiCGStab:  Solving for epsilon, Initial residual = 0.00126159, Final residual = 2.6639e-08, No Iterations 1
DILUPBiCGStab:  Solving for k, Initial residual = 0.000919901, Final residual = 2.93561e-08, No Iterations 1
ExecutionTime = 0.45 s  ClockTime = 0 s

Courant Number mean: 0.00723683 max: 0.034274
Time = 101.79

diagonal:  Solving for rho, Initial residual = 0, Final residual = 0, No Iterations 0
DILUPBiCGStab:  Solving for Ux, Initial residual = 0.000134354, Final residual = 1.69057e-09, No Iterations 1
DILUPBiCGStab:  Solving for Uy, Initial residual = 0.000105398, Final residual = 1.74213e-09, No Iterations 1
DILUPBiCGStab:  Solving for h, Initial residual = 0.000570339, Final residual = 7.68524e-09, No Iterations 1
DICPCG:  Solving for p_rgh, Initial residual = 0.000642374, Final residual = 5.00383e-06, No Iterations 21
diagonal:  Solving for rho, Initial residual = 0, Final residual = 0, No Iterations 0
time step continuity errors : sum local = 4.40942e-10, global = -1.27369e-10, cumulative = -1.16708e-07
DICPCG:  Solving for p_rgh, Initial residual = 8.07326e-06, Final residual = 7.09039e-09, No Iterations 27
diagonal:  Solving for rho, Initial residual = 0, Final residual = 0, No Iterations 0
time step continuity errors : sum local = 6.98445e-13, global = -4.36193e-13, cumulative = -1.16708e-07
DILUPBiCGStab:  Solving for epsilon, Initial residual = 0.00124885, Final residual = 2.64163e-08, No Iterations 1
DILUPBiCGStab:  Solving for k, Initial residual = 0.000915064, Final residual = 2.91336e-08, No Iterations 1
ExecutionTime = 0.45 s  ClockTime = 0 s

Courant Number mean: 0.00723638 max: 0.034262
Time = 101.8

diagonal:  Solving for rho, Initial residual = 0, Final residual = 0, No Iterations 0
DILUPBiCGStab:  Solving for Ux, Initial residual = 0.000132959, Final residual = 1.68462e-09, No Iterations 1
DILUPBiCGStab:  Solving for Uy, Initial residual = 0.000104237, Final residual = 1.71788e-09, No Iterations 1
DILUPBiCGStab:  Solving for h, Initial residual = 0.00057016, Final residual = 7.69303e-09, No Iterations 1
DICPCG:  Solving for p_rgh, Initial residual = 0.000639268, Final residual = 4.86124e-06, No Iterations 21
diagonal:  Solving for rho, Initial residual = 0, Final residual = 0, No Iterations 0
time step continuity errors : sum local = 4.30816e-10, global = -1.27377e-10, cumulative = -1.16836e-07
DICPCG:  Solving for p_rgh, Initial residual = 7.9284e-06, Final residual = 6.9293e-09, No Iterations 27
diagonal:  Solving for rho, Initial residual = 0, Final residual = 0, No Iterations 0
time step continuity errors : sum local = 6.90117e-13, global = -4.10214e-13, cumulative = -1.16836e-07
DILUPBiCGStab:  Solving for epsilon, Initial residual = 0.00123603, Final residual = 2.61894e-08, No Iterations 1
DILUPBiCGStab:  Solving for k, Initial residual = 0.000910301, Final residual = 2.89097e-08, No Iterations 1
ExecutionTime = 0.45 s  ClockTime = 0 s

Courant Number mean: 0.00723593 max: 0.0342501
Time = 101.81

diagonal:  Solving for rho, Initial residual = 0, Final residual = 0, No Iterations 0
DILUPBiCGStab:  Solving for Ux, Initial residual = 0.000131561, Final residual = 1.67813e-09, No Iterations 1
DILUPBiCGStab:  Solving for Uy, Initial residual = 0.00010308, Final residual = 1.69339e-09, No Iterations 1
DILUPBiCGStab:  Solving for h, Initial residual = 0.000569958, Final residual = 7.70019e-09, No Iterations 1
DICPCG:  Solving for p_rgh, Initial residual = 0.000636933, Final residual = 4.72025e-06, No Iterations 21
diagonal:  Solving for rho, Initial residual = 0, Final residual = 0, No Iterations 0
time step continuity errors : sum local = 4.20787e-10, global = -1.27323e-10, cumulative = -1.16963e-07
DICPCG:  Solving for p_rgh, Initial residual = 7.78494e-06, Final residual = 6.76202e-09, No Iterations 27
diagonal:  Solving for rho, Initial residual = 0, Final residual = 0, No Iterations 0
time step continuity errors : sum local = 6.63147e-13, global = -3.90274e-13, cumulative = -1.16964e-07
DILUPBiCGStab:  Solving for epsilon, Initial residual = 0.00122315, Final residual = 2.59587e-08, No Iterations 1
DILUPBiCGStab:  Solving for k, Initial residual = 0.000905485, Final residual = 2.86825e-08, No Iterations 1
ExecutionTime = 0.45 s  ClockTime = 0 s

Courant Number mean: 0.00723548 max: 0.0342384
Time = 101.82

diagonal:  Solving for rho, Initial residual = 0, Final residual = 0, No Iterations 0
DILUPBiCGStab:  Solving for Ux, Initial residual = 0.00013016, Final residual = 1.67112e-09, No Iterations 1
DILUPBiCGStab:  Solving for Uy, Initial residual = 0.000101928, Final residual = 1.66872e-09, No Iterations 1
DILUPBiCGStab:  Solving for h, Initial residual = 0.000569735, Final residual = 7.70675e-09, No Iterations 1
DICPCG:  Solving for p_rgh, Initial residual = 0.000634907, Final residual = 4.58003e-06, No Iterations 21
diagonal:  Solving for rho, Initial residual = 0, Final residual = 0, No Iterations 0
time step continuity errors : sum local = 4.10873e-10, global = -1.2722e-10, cumulative = -1.17091e-07
DICPCG:  Solving for p_rgh, Initial residual = 7.6431e-06, Final residual = 6.59959e-09, No Iterations 27
diagonal:  Solving for rho, Initial residual = 0, Final residual = 0, No Iterations 0
time step continuity errors : sum local = 6.44514e-13, global = -3.7682e-13, cumulative = -1.17091e-07
DILUPBiCGStab:  Solving for epsilon, Initial residual = 0.00121025, Final residual = 2.57242e-08, No Iterations 1
DILUPBiCGStab:  Solving for k, Initial residual = 0.000900601, Final residual = 2.84519e-08, No Iterations 1
ExecutionTime = 0.46 s  ClockTime = 0 s

Courant Number mean: 0.00723502 max: 0.0342269
Time = 101.83

diagonal:  Solving for rho, Initial residual = 0, Final residual = 0, No Iterations 0
DILUPBiCGStab:  Solving for Ux, Initial residual = 0.000128768, Final residual = 1.67185e-09, No Iterations 1
DILUPBiCGStab:  Solving for Uy, Initial residual = 0.000100782, Final residual = 1.64392e-09, No Iterations 1
DILUPBiCGStab:  Solving for h, Initial residual = 0.000569498, Final residual = 7.71279e-09, No Iterations 1
DICPCG:  Solving for p_rgh, Initial residual = 0.000632871, Final residual = 4.43893e-06, No Iterations 21
diagonal:  Solving for rho, Initial residual = 0, Final residual = 0, No Iterations 0
time step continuity errors : sum local = 4.00905e-10, global = -1.27085e-10, cumulative = -1.17218e-07
DICPCG:  Solving for p_rgh, Initial residual = 7.50054e-06, Final residual = 6.4464e-09, No Iterations 27
diagonal:  Solving for rho, Initial residual = 0, Final residual = 0, No Iterations 0
time step continuity errors : sum local = 6.37366e-13, global = -3.73185e-13, cumulative = -1.17219e-07
DILUPBiCGStab:  Solving for epsilon, Initial residual = 0.00119729, Final residual = 2.54865e-08, No Iterations 1
DILUPBiCGStab:  Solving for k, Initial residual = 0.000895655, Final residual = 2.82182e-08, No Iterations 1
ExecutionTime = 0.46 s  ClockTime = 0 s

Courant Number mean: 0.00723456 max: 0.0342155
Time = 101.84

diagonal:  Solving for rho, Initial residual = 0, Final residual = 0, No Iterations 0
DILUPBiCGStab:  Solving for Ux, Initial residual = 0.000127668, Final residual = 1.67495e-09, No Iterations 1
DILUPBiCGStab:  Solving for Uy, Initial residual = 9.96499e-05, Final residual = 1.62122e-09, No Iterations 1
DILUPBiCGStab:  Solving for h, Initial residual = 0.000569264, Final residual = 7.71839e-09, No Iterations 1
DICPCG:  Solving for p_rgh, Initial residual = 0.000630535, Final residual = 4.29598e-06, No Iterations 21
diagonal:  Solving for rho, Initial residual = 0, Final residual = 0, No Iterations 0
time step continuity errors : sum local = 3.90971e-10, global = -1.26958e-10, cumulative = -1.17346e-07
DICPCG:  Solving for p_rgh, Initial residual = 7.35635e-06, Final residual = 6.30832e-09, No Iterations 27
diagonal:  Solving for rho, Initial residual = 0, Final residual = 0, No Iterations 0
time step continuity errors : sum local = 6.2524e-13, global = -3.57342e-13, cumulative = -1.17346e-07
DILUPBiCGStab:  Solving for epsilon, Initial residual = 0.00118429, Final residual = 2.52456e-08, No Iterations 1
DILUPBiCGStab:  Solving for k, Initial residual = 0.000890654, Final residual = 2.79814e-08, No Iterations 1
ExecutionTime = 0.46 s  ClockTime = 0 s

Courant Number mean: 0.0072341 max: 0.0342042
Time = 101.85

diagonal:  Solving for rho, Initial residual = 0, Final residual = 0, No Iterations 0
DILUPBiCGStab:  Solving for Ux, Initial residual = 0.000126561, Final residual = 1.67727e-09, No Iterations 1
DILUPBiCGStab:  Solving for Uy, Initial residual = 9.85244e-05, Final residual = 1.60111e-09, No Iterations 1
DILUPBiCGStab:  Solving for h, Initial residual = 0.000569038, Final residual = 7.7236e-09, No Iterations 1
DICPCG:  Solving for p_rgh, Initial residual = 0.000627684, Final residual = 6.26612e-06, No Iterations 20
diagonal:  Solving for rho, Initial residual = 0, Final residual = 0, No Iterations 0
time step continuity errors : sum local = 5.16973e-10, global = -1.21847e-10, cumulative = -1.17468e-07
DICPCG:  Solving for p_rgh, Initial residual = 8.95216e-06, Final residual = 6.83382e-09, No Iterations 27
diagonal:  Solving for rho, Initial residual = 0, Final residual = 0, No Iterations 0
time step continuity errors : sum local = 6.05789e-13, global = -3.40505e-13, cumulative = -1.17468e-07
DILUPBiCGStab:  Solving for epsilon, Initial residual = 0.00117126, Final residual = 2.50017e-08, No Iterations 1
DILUPBiCGStab:  Solving for k, Initial residual = 0.000885607, Final residual = 2.77419e-08, No Iterations 1
ExecutionTime = 0.46 s  ClockTime = 0 s

Courant Number mean: 0.00723364 max: 0.0341931
Time = 101.86

diagonal:  Solving for rho, Initial residual = 0, Final residual = 0, No Iterations 0
DILUPBiCGStab:  Solving for Ux, Initial residual = 0.000125452, Final residual = 1.67881e-09, No Iterations 1
DILUPBiCGStab:  Solving for Uy, Initial residual = 9.74087e-05, Final residual = 1.58085e-09, No Iterations 1
DILUPBiCGStab:  Solving for h, Initial residual = 0.000568817, Final residual = 7.72846e-09, No Iterations 1
DICPCG:  Solving for p_rgh, Initial residual = 0.000624212, Final residual = 6.01363e-06, No Iterations 20
diagonal:  Solving for rho, Initial residual = 0, Final residual = 0, No Iterations 0
time step continuity errors : sum local = 5.00282e-10, global = -1.21864e-10, cumulative = -1.1759e-07
DICPCG:  Solving for p_rgh, Initial residual = 8.69768e-06, Final residual = 6.59166e-09, No Iterations 27
diagonal:  Solving for rho, Initial residual = 0, Final residual = 0, No Iterations 0
time step continuity errors : sum local = 5.93075e-13, global = -3.19082e-13, cumulative = -1.1759e-07
DILUPBiCGStab:  Solving for epsilon, Initial residual = 0.00115821, Final residual = 2.47551e-08, No Iterations 1
DILUPBiCGStab:  Solving for k, Initial residual = 0.000880551, Final residual = 2.75001e-08, No Iterations 1
ExecutionTime = 0.47 s  ClockTime = 0 s

Courant Number mean: 0.00723318 max: 0.0341821
Time = 101.87

diagonal:  Solving for rho, Initial residual = 0, Final residual = 0, No Iterations 0
DILUPBiCGStab:  Solving for Ux, Initial residual = 0.000124335, Final residual = 1.6796e-09, No Iterations 1
DILUPBiCGStab:  Solving for Uy, Initial residual = 9.62981e-05, Final residual = 1.56044e-09, No Iterations 1
DILUPBiCGStab:  Solving for h, Initial residual = 0.000568603, Final residual = 7.73301e-09, No Iterations 1
DICPCG:  Solving for p_rgh, Initial residual = 0.000620121, Final residual = 5.75198e-06, No Iterations 20
diagonal:  Solving for rho, Initial residual = 0, Final residual = 0, No Iterations 0
time step continuity errors : sum local = 4.82898e-10, global = -1.21998e-10, cumulative = -1.17712e-07
DICPCG:  Solving for p_rgh, Initial residual = 8.43697e-06, Final residual = 6.40564e-09, No Iterations 27
diagonal:  Solving for rho, Initial residual = 0, Final residual = 0, No Iterations 0
time step continuity errors : sum local = 5.55438e-13, global = -2.87651e-13, cumulative = -1.17713e-07
DILUPBiCGStab:  Solving for epsilon, Initial residual = 0.00114514, Final residual = 2.45061e-08, No Iterations 1
DILUPBiCGStab:  Solving for k, Initial residual = 0.000875441, Final residual = 2.72561e-08, No Iterations 1
ExecutionTime = 0.47 s  ClockTime = 0 s

Courant Number mean: 0.00723271 max: 0.0341713
Time = 101.88

diagonal:  Solving for rho, Initial residual = 0, Final residual = 0, No Iterations 0
DILUPBiCGStab:  Solving for Ux, Initial residual = 0.000123208, Final residual = 1.67965e-09, No Iterations 1
DILUPBiCGStab:  Solving for Uy, Initial residual = 9.52011e-05, Final residual = 1.53998e-09, No Iterations 1
DILUPBiCGStab:  Solving for h, Initial residual = 0.0005684, Final residual = 7.73727e-09, No Iterations 1
DICPCG:  Solving for p_rgh, Initial residual = 0.000615749, Final residual = 5.49593e-06, No Iterations 20
diagonal:  Solving for rho, Initial residual = 0, Final residual = 0, No Iterations 0
time step continuity errors : sum local = 4.66008e-10, global = -1.22285e-10, cumulative = -1.17835e-07
DICPCG:  Solving for p_rgh, Initial residual = 8.1858e-06, Final residual = 6.24624e-09, No Iterations 27
diagonal:  Solving for rho, Initial residual = 0, Final residual = 0, No Iterations 0
time step continuity errors : sum local = 5.43474e-13, global = -2.4544e-13, cumulative = -1.17835e-07
DILUPBiCGStab:  Solving for epsilon, Initial residual = 0.00113206, Final residual = 2.42548e-08, No Iterations 1
DILUPBiCGStab:  Solving for k, Initial residual = 0.000870281, Final residual = 2.70102e-08, No Iterations 1
ExecutionTime = 0.47 s  ClockTime = 0 s

Courant Number mean: 0.00723225 max: 0.0341605
Time = 101.89

diagonal:  Solving for rho, Initial residual = 0, Final residual = 0, No Iterations 0
DILUPBiCGStab:  Solving for Ux, Initial residual = 0.000122072, Final residual = 1.67902e-09, No Iterations 1
DILUPBiCGStab:  Solving for Uy, Initial residual = 9.43122e-05, Final residual = 1.51935e-09, No Iterations 1
DILUPBiCGStab:  Solving for h, Initial residual = 0.000568206, Final residual = 7.74122e-09, No Iterations 1
DICPCG:  Solving for p_rgh, Initial residual = 0.000611199, Final residual = 5.24613e-06, No Iterations 20
diagonal:  Solving for rho, Initial residual = 0, Final residual = 0, No Iterations 0
time step continuity errors : sum local = 4.49469e-10, global = -1.22756e-10, cumulative = -1.17958e-07
DICPCG:  Solving for p_rgh, Initial residual = 7.94103e-06, Final residual = 6.11355e-09, No Iterations 27
diagonal:  Solving for rho, Initial residual = 0, Final residual = 0, No Iterations 0
time step continuity errors : sum local = 5.09173e-13, global = -2.15897e-13, cumulative = -1.17958e-07
DILUPBiCGStab:  Solving for epsilon, Initial residual = 0.00111898, Final residual = 2.40016e-08, No Iterations 1
DILUPBiCGStab:  Solving for k, Initial residual = 0.000865076, Final residual = 2.67626e-08, No Iterations 1
ExecutionTime = 0.47 s  ClockTime = 0 s

Courant Number mean: 0.00723178 max: 0.03415
Time = 101.9

diagonal:  Solving for rho, Initial residual = 0, Final residual = 0, No Iterations 0
DILUPBiCGStab:  Solving for Ux, Initial residual = 0.000120928, Final residual = 1.67768e-09, No Iterations 1
DILUPBiCGStab:  Solving for Uy, Initial residual = 9.34238e-05, Final residual = 1.49867e-09, No Iterations 1
DILUPBiCGStab:  Solving for h, Initial residual = 0.000568008, Final residual = 7.74473e-09, No Iterations 1
DICPCG:  Solving for p_rgh, Initial residual = 0.000606617, Final residual = 4.98422e-06, No Iterations 20
diagonal:  Solving for rho, Initial residual = 0, Final residual = 0, No Iterations 0
time step continuity errors : sum local = 4.32143e-10, global = -1.23404e-10, cumulative = -1.18082e-07
DICPCG:  Solving for p_rgh, Initial residual = 7.68674e-06, Final residual = 5.97963e-09, No Iterations 27
diagonal:  Solving for rho, Initial residual = 0, Final residual = 0, No Iterations 0
time step continuity errors : sum local = 4.97775e-13, global = -1.86528e-13, cumulative = -1.18082e-07
DILUPBiCGStab:  Solving for epsilon, Initial residual = 0.00110591, Final residual = 2.37465e-08, No Iterations 1
DILUPBiCGStab:  Solving for k, Initial residual = 0.000859827, Final residual = 2.65141e-08, No Iterations 1
ExecutionTime = 0.47 s  ClockTime = 0 s

Courant Number mean: 0.00723131 max: 0.0341395
Time = 101.91

diagonal:  Solving for rho, Initial residual = 0, Final residual = 0, No Iterations 0
DILUPBiCGStab:  Solving for Ux, Initial residual = 0.000119775, Final residual = 1.67569e-09, No Iterations 1
DILUPBiCGStab:  Solving for Uy, Initial residual = 9.26059e-05, Final residual = 1.478e-09, No Iterations 1
DILUPBiCGStab:  Solving for h, Initial residual = 0.000567789, Final residual = 7.74755e-09, No Iterations 1
DICPCG:  Solving for p_rgh, Initial residual = 0.000602208, Final residual = 5.76339e-06, No Iterations 19
diagonal:  Solving for rho, Initial residual = 0, Final residual = 0, No Iterations 0
time step continuity errors : sum local = 5.02004e-10, global = -1.30233e-10, cumulative = -1.18212e-07
DICPCG:  Solving for p_rgh, Initial residual = 8.1826e-06, Final residual = 7.36317e-09, No Iterations 25
diagonal:  Solving for rho, Initial residual = 0, Final residual = 0, No Iterations 0
time step continuity errors : sum local = 5.53873e-13, global = -1.54687e-13, cumulative = -1.18212e-07
DILUPBiCGStab:  Solving for epsilon, Initial residual = 0.00109285, Final residual = 2.34896e-08, No Iterations 1
DILUPBiCGStab:  Solving for k, Initial residual = 0.000854537, Final residual = 2.62648e-08, No Iterations 1
ExecutionTime = 0.48 s  ClockTime = 0 s

Courant Number mean: 0.00723083 max: 0.0341292
Time = 101.92

diagonal:  Solving for rho, Initial residual = 0, Final residual = 0, No Iterations 0
