/*---------------------------------------------------------------------------*\
  =========                 |
  \\      /  F ield         | OpenFOAM: The Open Source CFD Toolbox
   \\    /   O peration     | Website:  https://openfoam.org
    \\  /    A nd           | Version:  6
     \\/     M anipulation  |
\*---------------------------------------------------------------------------*/
Build  : 6-f934eabb0d52
Exec   : buoyantPimpleFoam -case /home/mamitsu/OpenFOAM/mamitsu-6/run/aircond5/Case/case0
Date   : May 15 2019
Time   : 17:26:01
Host   : "mamitsu-desktop"
PID    : 5764
I/O    : uncollated
Case   : /home/mamitsu/OpenFOAM/mamitsu-6/run/aircond5/Case/case0
nProcs : 1
sigFpe : Enabling floating point exception trapping (FOAM_SIGFPE).
fileModificationChecking : Monitoring run-time modified files using timeStampMaster (fileModificationSkew 10)
allowSystemOperations : Allowing user-supplied system call operations

// * * * * * * * * * * * * * * * * * * * * * * * * * * * * * * * * * * * * * //
Create time

Create mesh for time = 100


PIMPLE: No convergence criteria found


PIMPLE: Operating solver in PISO mode

Reading thermophysical properties

Selecting thermodynamics package
{
    type            heRhoThermo;
    mixture         pureMixture;
    transport       const;
    thermo          hConst;
    equationOfState perfectGas;
    specie          specie;
    energy          sensibleEnthalpy;
}

Reading field U

Reading/calculating face flux field phi

Creating turbulence model

Selecting turbulence model type RAS
Selecting RAS turbulence model kEpsilon
RAS
{
    RASModel        kEpsilon;
    turbulence      on;
    printCoeffs     on;
    Cmu             0.09;
    C1              1.44;
    C2              1.92;
    C3              0;
    sigmak          1;
    sigmaEps        1.3;
}


Reading g

Reading hRef
Calculating field g.h

Reading field p_rgh

Creating field dpdt

Creating field kinetic energy K

No MRF models present

Radiation model not active: radiationProperties not found
Selecting radiationModel none
No finite volume options present
Courant Number mean: 0.00603559 max: 0.0330776

Starting time loop

Courant Number mean: 0.00603559 max: 0.0330776
Time = 100.01

diagonal:  Solving for rho, Initial residual = 0, Final residual = 0, No Iterations 0
DILUPBiCGStab:  Solving for Ux, Initial residual = 0.00252012, Final residual = 5.1413e-08, No Iterations 1
DILUPBiCGStab:  Solving for Uy, Initial residual = 0.127592, Final residual = 9.20787e-07, No Iterations 1
DILUPBiCGStab:  Solving for h, Initial residual = 0.000141994, Final residual = 1.43231e-09, No Iterations 1
DICPCG:  Solving for p_rgh, Initial residual = 0.979903, Final residual = 0.00933353, No Iterations 13
diagonal:  Solving for rho, Initial residual = 0, Final residual = 0, No Iterations 0
time step continuity errors : sum local = 1.1664e-05, global = 2.11245e-06, cumulative = 2.11245e-06
DICPCG:  Solving for p_rgh, Initial residual = 0.10052, Final residual = 6.82474e-09, No Iterations 39
diagonal:  Solving for rho, Initial residual = 0, Final residual = 0, No Iterations 0
time step continuity errors : sum local = 1.0381e-09, global = 9.31908e-10, cumulative = 2.11338e-06
DILUPBiCGStab:  Solving for epsilon, Initial residual = 0.000991253, Final residual = 2.90222e-08, No Iterations 1
DILUPBiCGStab:  Solving for k, Initial residual = 0.000139402, Final residual = 3.46685e-09, No Iterations 1
ExecutionTime = 0 s  ClockTime = 0 s

Courant Number mean: 0.00603797 max: 0.03163
Time = 100.02

diagonal:  Solving for rho, Initial residual = 0, Final residual = 0, No Iterations 0
DILUPBiCGStab:  Solving for Ux, Initial residual = 0.00917113, Final residual = 8.94487e-08, No Iterations 1
DILUPBiCGStab:  Solving for Uy, Initial residual = 0.0120735, Final residual = 1.70223e-07, No Iterations 1
DILUPBiCGStab:  Solving for h, Initial residual = 0.000539493, Final residual = 1.11834e-08, No Iterations 1
DICPCG:  Solving for p_rgh, Initial residual = 0.307922, Final residual = 0.0025364, No Iterations 24
diagonal:  Solving for rho, Initial residual = 0, Final residual = 0, No Iterations 0
time step continuity errors : sum local = 2.86422e-07, global = -1.6505e-09, cumulative = 2.11173e-06
DICPCG:  Solving for p_rgh, Initial residual = 0.00581493, Final residual = 5.99308e-09, No Iterations 37
diagonal:  Solving for rho, Initial residual = 0, Final residual = 0, No Iterations 0
time step continuity errors : sum local = 9.32601e-10, global = 7.95978e-10, cumulative = 2.11252e-06
DILUPBiCGStab:  Solving for epsilon, Initial residual = 0.00012104, Final residual = 2.52305e-09, No Iterations 1
DILUPBiCGStab:  Solving for k, Initial residual = 0.000124974, Final residual = 2.61485e-09, No Iterations 1
ExecutionTime = 0.01 s  ClockTime = 0 s

Courant Number mean: 0.00604155 max: 0.0319785
Time = 100.03

diagonal:  Solving for rho, Initial residual = 0, Final residual = 0, No Iterations 0
DILUPBiCGStab:  Solving for Ux, Initial residual = 0.00423713, Final residual = 3.90278e-08, No Iterations 1
DILUPBiCGStab:  Solving for Uy, Initial residual = 0.00567142, Final residual = 6.43801e-08, No Iterations 1
DILUPBiCGStab:  Solving for h, Initial residual = 0.000942497, Final residual = 1.42574e-08, No Iterations 1
DICPCG:  Solving for p_rgh, Initial residual = 0.10522, Final residual = 0.000749623, No Iterations 22
diagonal:  Solving for rho, Initial residual = 0, Final residual = 0, No Iterations 0
time step continuity errors : sum local = 8.9779e-08, global = 4.11378e-10, cumulative = 2.11293e-06
DICPCG:  Solving for p_rgh, Initial residual = 0.000973592, Final residual = 8.62632e-09, No Iterations 34
diagonal:  Solving for rho, Initial residual = 0, Final residual = 0, No Iterations 0
time step continuity errors : sum local = 7.46505e-10, global = 6.70442e-10, cumulative = 2.11361e-06
DILUPBiCGStab:  Solving for epsilon, Initial residual = 0.000132229, Final residual = 2.85542e-09, No Iterations 1
DILUPBiCGStab:  Solving for k, Initial residual = 0.000130598, Final residual = 2.72358e-09, No Iterations 1
ExecutionTime = 0.01 s  ClockTime = 0 s

Courant Number mean: 0.00605634 max: 0.0321929
Time = 100.04

diagonal:  Solving for rho, Initial residual = 0, Final residual = 0, No Iterations 0
DILUPBiCGStab:  Solving for Ux, Initial residual = 0.0033581, Final residual = 3.16298e-08, No Iterations 1
DILUPBiCGStab:  Solving for Uy, Initial residual = 0.00511982, Final residual = 5.85014e-08, No Iterations 1
DILUPBiCGStab:  Solving for h, Initial residual = 0.00078959, Final residual = 1.22788e-08, No Iterations 1
DICPCG:  Solving for p_rgh, Initial residual = 0.0455587, Final residual = 0.000419359, No Iterations 22
diagonal:  Solving for rho, Initial residual = 0, Final residual = 0, No Iterations 0
time step continuity errors : sum local = 5.67767e-08, global = -1.45218e-10, cumulative = 2.11346e-06
DICPCG:  Solving for p_rgh, Initial residual = 0.000534063, Final residual = 7.7239e-09, No Iterations 32
diagonal:  Solving for rho, Initial residual = 0, Final residual = 0, No Iterations 0
time step continuity errors : sum local = 3.42268e-10, global = 2.94151e-10, cumulative = 2.11375e-06
DILUPBiCGStab:  Solving for epsilon, Initial residual = 0.000143613, Final residual = 3.19591e-09, No Iterations 1
DILUPBiCGStab:  Solving for k, Initial residual = 0.000141333, Final residual = 3.05881e-09, No Iterations 1
ExecutionTime = 0.01 s  ClockTime = 0 s

Courant Number mean: 0.0060774 max: 0.0323548
Time = 100.05

diagonal:  Solving for rho, Initial residual = 0, Final residual = 0, No Iterations 0
DILUPBiCGStab:  Solving for Ux, Initial residual = 0.00616938, Final residual = 4.74826e-08, No Iterations 1
DILUPBiCGStab:  Solving for Uy, Initial residual = 0.00462855, Final residual = 5.45325e-08, No Iterations 1
DILUPBiCGStab:  Solving for h, Initial residual = 0.000516976, Final residual = 1.01494e-08, No Iterations 1
DICPCG:  Solving for p_rgh, Initial residual = 0.0107129, Final residual = 9.83413e-05, No Iterations 21
diagonal:  Solving for rho, Initial residual = 0, Final residual = 0, No Iterations 0
time step continuity errors : sum local = 1.42231e-08, global = -6.12171e-11, cumulative = 2.11369e-06
DICPCG:  Solving for p_rgh, Initial residual = 0.0001339, Final residual = 4.83537e-09, No Iterations 31
diagonal:  Solving for rho, Initial residual = 0, Final residual = 0, No Iterations 0
time step continuity errors : sum local = 1.36281e-10, global = -1.36281e-10, cumulative = 2.11356e-06
DILUPBiCGStab:  Solving for epsilon, Initial residual = 0.000157126, Final residual = 3.52101e-09, No Iterations 1
DILUPBiCGStab:  Solving for k, Initial residual = 0.000155438, Final residual = 3.55709e-09, No Iterations 1
ExecutionTime = 0.01 s  ClockTime = 0 s

Courant Number mean: 0.00609801 max: 0.0325126
Time = 100.06

diagonal:  Solving for rho, Initial residual = 0, Final residual = 0, No Iterations 0
DILUPBiCGStab:  Solving for Ux, Initial residual = 0.00586702, Final residual = 4.50781e-08, No Iterations 1
DILUPBiCGStab:  Solving for Uy, Initial residual = 0.00439605, Final residual = 5.24176e-08, No Iterations 1
DILUPBiCGStab:  Solving for h, Initial residual = 0.000249987, Final residual = 7.99914e-09, No Iterations 1
DICPCG:  Solving for p_rgh, Initial residual = 0.0312656, Final residual = 0.000181434, No Iterations 21
diagonal:  Solving for rho, Initial residual = 0, Final residual = 0, No Iterations 0
time step continuity errors : sum local = 2.51285e-08, global = -5.11332e-11, cumulative = 2.11351e-06
DICPCG:  Solving for p_rgh, Initial residual = 0.000307433, Final residual = 8.79445e-09, No Iterations 32
diagonal:  Solving for rho, Initial residual = 0, Final residual = 0, No Iterations 0
time step continuity errors : sum local = 5.20584e-10, global = -5.20584e-10, cumulative = 2.11298e-06
DILUPBiCGStab:  Solving for epsilon, Initial residual = 0.000173639, Final residual = 3.89202e-09, No Iterations 1
DILUPBiCGStab:  Solving for k, Initial residual = 0.000172039, Final residual = 4.11681e-09, No Iterations 1
ExecutionTime = 0.02 s  ClockTime = 0 s

Courant Number mean: 0.00611281 max: 0.0326481
Time = 100.07

diagonal:  Solving for rho, Initial residual = 0, Final residual = 0, No Iterations 0
DILUPBiCGStab:  Solving for Ux, Initial residual = 0.00385745, Final residual = 3.20508e-08, No Iterations 1
DILUPBiCGStab:  Solving for Uy, Initial residual = 0.00363575, Final residual = 4.38272e-08, No Iterations 1
DILUPBiCGStab:  Solving for h, Initial residual = 0.000425899, Final residual = 9.2873e-09, No Iterations 1
DICPCG:  Solving for p_rgh, Initial residual = 0.0545022, Final residual = 0.000468612, No Iterations 20
diagonal:  Solving for rho, Initial residual = 0, Final residual = 0, No Iterations 0
time step continuity errors : sum local = 5.73045e-08, global = -5.22249e-10, cumulative = 2.11246e-06
DICPCG:  Solving for p_rgh, Initial residual = 0.00077418, Final residual = 6.7189e-09, No Iterations 33
diagonal:  Solving for rho, Initial residual = 0, Final residual = 0, No Iterations 0
time step continuity errors : sum local = 7.94194e-10, global = -7.94194e-10, cumulative = 2.11167e-06
DILUPBiCGStab:  Solving for epsilon, Initial residual = 0.00018909, Final residual = 4.24085e-09, No Iterations 1
DILUPBiCGStab:  Solving for k, Initial residual = 0.000185968, Final residual = 4.63279e-09, No Iterations 1
ExecutionTime = 0.02 s  ClockTime = 0 s

Courant Number mean: 0.00612033 max: 0.0327246
Time = 100.08

diagonal:  Solving for rho, Initial residual = 0, Final residual = 0, No Iterations 0
DILUPBiCGStab:  Solving for Ux, Initial residual = 0.00178817, Final residual = 1.81586e-08, No Iterations 1
DILUPBiCGStab:  Solving for Uy, Initial residual = 0.00235772, Final residual = 2.91345e-08, No Iterations 1
DILUPBiCGStab:  Solving for h, Initial residual = 0.000619987, Final residual = 1.12984e-08, No Iterations 1
DICPCG:  Solving for p_rgh, Initial residual = 0.0789149, Final residual = 0.000555401, No Iterations 20
diagonal:  Solving for rho, Initial residual = 0, Final residual = 0, No Iterations 0
time step continuity errors : sum local = 5.62918e-08, global = -7.82991e-10, cumulative = 2.11089e-06
DICPCG:  Solving for p_rgh, Initial residual = 0.00105858, Final residual = 7.87543e-09, No Iterations 34
diagonal:  Solving for rho, Initial residual = 0, Final residual = 0, No Iterations 0
time step continuity errors : sum local = 9.14515e-10, global = -9.14515e-10, cumulative = 2.10997e-06
DILUPBiCGStab:  Solving for epsilon, Initial residual = 0.000202122, Final residual = 4.55231e-09, No Iterations 1
DILUPBiCGStab:  Solving for k, Initial residual = 0.000195232, Final residual = 5.0352e-09, No Iterations 1
ExecutionTime = 0.02 s  ClockTime = 0 s

Courant Number mean: 0.00612126 max: 0.0327169
Time = 100.09

diagonal:  Solving for rho, Initial residual = 0, Final residual = 0, No Iterations 0
DILUPBiCGStab:  Solving for Ux, Initial residual = 0.000492459, Final residual = 7.54705e-09, No Iterations 1
DILUPBiCGStab:  Solving for Uy, Initial residual = 0.000976135, Final residual = 1.42768e-08, No Iterations 1
DILUPBiCGStab:  Solving for h, Initial residual = 0.00070735, Final residual = 1.23102e-08, No Iterations 1
DICPCG:  Solving for p_rgh, Initial residual = 0.102621, Final residual = 0.000834794, No Iterations 20
diagonal:  Solving for rho, Initial residual = 0, Final residual = 0, No Iterations 0
time step continuity errors : sum local = 6.47603e-08, global = -2.60675e-10, cumulative = 2.10971e-06
DICPCG:  Solving for p_rgh, Initial residual = 0.00118824, Final residual = 6.84563e-09, No Iterations 34
diagonal:  Solving for rho, Initial residual = 0, Final residual = 0, No Iterations 0
time step continuity errors : sum local = 8.73958e-10, global = -8.73958e-10, cumulative = 2.10884e-06
DILUPBiCGStab:  Solving for epsilon, Initial residual = 0.000213013, Final residual = 4.83528e-09, No Iterations 1
DILUPBiCGStab:  Solving for k, Initial residual = 0.000199224, Final residual = 5.33191e-09, No Iterations 1
ExecutionTime = 0.02 s  ClockTime = 0 s

Courant Number mean: 0.00611663 max: 0.0326253
Time = 100.1

diagonal:  Solving for rho, Initial residual = 0, Final residual = 0, No Iterations 0
DILUPBiCGStab:  Solving for Ux, Initial residual = 0.00116914, Final residual = 1.35694e-08, No Iterations 1
DILUPBiCGStab:  Solving for Uy, Initial residual = 0.000997005, Final residual = 1.77583e-08, No Iterations 1
DILUPBiCGStab:  Solving for h, Initial residual = 0.000679862, Final residual = 1.20994e-08, No Iterations 1
DICPCG:  Solving for p_rgh, Initial residual = 0.0920161, Final residual = 0.00086864, No Iterations 20
diagonal:  Solving for rho, Initial residual = 0, Final residual = 0, No Iterations 0
time step continuity errors : sum local = 6.25618e-08, global = 6.12604e-11, cumulative = 2.1089e-06
DICPCG:  Solving for p_rgh, Initial residual = 0.000852307, Final residual = 5.2389e-09, No Iterations 33
diagonal:  Solving for rho, Initial residual = 0, Final residual = 0, No Iterations 0
time step continuity errors : sum local = 6.99053e-10, global = -6.99053e-10, cumulative = 2.1082e-06
DILUPBiCGStab:  Solving for epsilon, Initial residual = 0.000222484, Final residual = 5.10185e-09, No Iterations 1
DILUPBiCGStab:  Solving for k, Initial residual = 0.000200107, Final residual = 5.63595e-09, No Iterations 1
ExecutionTime = 0.03 s  ClockTime = 0 s

Courant Number mean: 0.00610758 max: 0.0324719
Time = 100.11

diagonal:  Solving for rho, Initial residual = 0, Final residual = 0, No Iterations 0
DILUPBiCGStab:  Solving for Ux, Initial residual = 0.00208114, Final residual = 1.89159e-08, No Iterations 1
DILUPBiCGStab:  Solving for Uy, Initial residual = 0.00204218, Final residual = 3.19794e-08, No Iterations 1
DILUPBiCGStab:  Solving for h, Initial residual = 0.000556397, Final residual = 1.08593e-08, No Iterations 1
DICPCG:  Solving for p_rgh, Initial residual = 0.049657, Final residual = 0.000449938, No Iterations 16
diagonal:  Solving for rho, Initial residual = 0, Final residual = 0, No Iterations 0
time step continuity errors : sum local = 4.02282e-08, global = -1.25274e-09, cumulative = 2.10695e-06
DICPCG:  Solving for p_rgh, Initial residual = 0.000461799, Final residual = 7.81136e-09, No Iterations 32
diagonal:  Solving for rho, Initial residual = 0, Final residual = 0, No Iterations 0
time step continuity errors : sum local = 4.3687e-10, global = -4.3687e-10, cumulative = 2.10651e-06
DILUPBiCGStab:  Solving for epsilon, Initial residual = 0.000232971, Final residual = 5.37442e-09, No Iterations 1
DILUPBiCGStab:  Solving for k, Initial residual = 0.000200797, Final residual = 5.91544e-09, No Iterations 1
ExecutionTime = 0.03 s  ClockTime = 0 s

Courant Number mean: 0.00609574 max: 0.032286
Time = 100.12

diagonal:  Solving for rho, Initial residual = 0, Final residual = 0, No Iterations 0
DILUPBiCGStab:  Solving for Ux, Initial residual = 0.00274006, Final residual = 2.32636e-08, No Iterations 1
DILUPBiCGStab:  Solving for Uy, Initial residual = 0.00268976, Final residual = 4.00448e-08, No Iterations 1
DILUPBiCGStab:  Solving for h, Initial residual = 0.000372948, Final residual = 8.98538e-09, No Iterations 1
DICPCG:  Solving for p_rgh, Initial residual = 0.0184828, Final residual = 0.000114251, No Iterations 22
diagonal:  Solving for rho, Initial residual = 0, Final residual = 0, No Iterations 0
time step continuity errors : sum local = 1.13774e-08, global = 1.43373e-10, cumulative = 2.10665e-06
DICPCG:  Solving for p_rgh, Initial residual = 0.000142086, Final residual = 7.80341e-09, No Iterations 30
diagonal:  Solving for rho, Initial residual = 0, Final residual = 0, No Iterations 0
time step continuity errors : sum local = 1.40397e-10, global = -1.40397e-10, cumulative = 2.10651e-06
DILUPBiCGStab:  Solving for epsilon, Initial residual = 0.00024557, Final residual = 5.66708e-09, No Iterations 1
DILUPBiCGStab:  Solving for k, Initial residual = 0.000203227, Final residual = 6.19352e-09, No Iterations 1
ExecutionTime = 0.03 s  ClockTime = 0 s

Courant Number mean: 0.00608312 max: 0.0320955
Time = 100.13

diagonal:  Solving for rho, Initial residual = 0, Final residual = 0, No Iterations 0
DILUPBiCGStab:  Solving for Ux, Initial residual = 0.00296983, Final residual = 2.47425e-08, No Iterations 1
DILUPBiCGStab:  Solving for Uy, Initial residual = 0.0028917, Final residual = 4.22103e-08, No Iterations 1
DILUPBiCGStab:  Solving for h, Initial residual = 0.000249368, Final residual = 7.85317e-09, No Iterations 1
DICPCG:  Solving for p_rgh, Initial residual = 0.0168082, Final residual = 0.000120874, No Iterations 21
diagonal:  Solving for rho, Initial residual = 0, Final residual = 0, No Iterations 0
time step continuity errors : sum local = 1.24935e-08, global = 1.09289e-10, cumulative = 2.10662e-06
DICPCG:  Solving for p_rgh, Initial residual = 0.000180492, Final residual = 8.05206e-09, No Iterations 30
diagonal:  Solving for rho, Initial residual = 0, Final residual = 0, No Iterations 0
time step continuity errors : sum local = 1.40555e-10, global = 1.40344e-10, cumulative = 2.10676e-06
DILUPBiCGStab:  Solving for epsilon, Initial residual = 0.000259042, Final residual = 5.97982e-09, No Iterations 1
DILUPBiCGStab:  Solving for k, Initial residual = 0.000207503, Final residual = 6.47728e-09, No Iterations 1
ExecutionTime = 0.03 s  ClockTime = 0 s

Courant Number mean: 0.00607178 max: 0.0319228
Time = 100.14

diagonal:  Solving for rho, Initial residual = 0, Final residual = 0, No Iterations 0
DILUPBiCGStab:  Solving for Ux, Initial residual = 0.00269164, Final residual = 2.28381e-08, No Iterations 1
DILUPBiCGStab:  Solving for Uy, Initial residual = 0.00262739, Final residual = 3.87042e-08, No Iterations 1
DILUPBiCGStab:  Solving for h, Initial residual = 0.000423987, Final residual = 9.56217e-09, No Iterations 1
DICPCG:  Solving for p_rgh, Initial residual = 0.0328524, Final residual = 0.000241042, No Iterations 20
diagonal:  Solving for rho, Initial residual = 0, Final residual = 0, No Iterations 0
time step continuity errors : sum local = 2.38624e-08, global = -1.77376e-10, cumulative = 2.10658e-06
DICPCG:  Solving for p_rgh, Initial residual = 0.000364855, Final residual = 6.93582e-09, No Iterations 32
diagonal:  Solving for rho, Initial residual = 0, Final residual = 0, No Iterations 0
time step continuity errors : sum local = 3.64688e-10, global = 3.64688e-10, cumulative = 2.10695e-06
DILUPBiCGStab:  Solving for epsilon, Initial residual = 0.000272404, Final residual = 6.29389e-09, No Iterations 1
DILUPBiCGStab:  Solving for k, Initial residual = 0.000213286, Final residual = 6.77797e-09, No Iterations 1
ExecutionTime = 0.03 s  ClockTime = 0 s

Courant Number mean: 0.00606336 max: 0.0317846
Time = 100.15

diagonal:  Solving for rho, Initial residual = 0, Final residual = 0, No Iterations 0
DILUPBiCGStab:  Solving for Ux, Initial residual = 0.00200227, Final residual = 1.83285e-08, No Iterations 1
DILUPBiCGStab:  Solving for Uy, Initial residual = 0.00199103, Final residual = 3.05819e-08, No Iterations 1
DILUPBiCGStab:  Solving for h, Initial residual = 0.000578559, Final residual = 1.0962e-08, No Iterations 1
DICPCG:  Solving for p_rgh, Initial residual = 0.0483824, Final residual = 0.000366077, No Iterations 20
diagonal:  Solving for rho, Initial residual = 0, Final residual = 0, No Iterations 0
time step continuity errors : sum local = 3.30281e-08, global = 5.96341e-10, cumulative = 2.10755e-06
DICPCG:  Solving for p_rgh, Initial residual = 0.000591717, Final residual = 5.48188e-09, No Iterations 34
diagonal:  Solving for rho, Initial residual = 0, Final residual = 0, No Iterations 0
time step continuity errors : sum local = 5.05161e-10, global = 5.05161e-10, cumulative = 2.10805e-06
DILUPBiCGStab:  Solving for epsilon, Initial residual = 0.000284549, Final residual = 6.58517e-09, No Iterations 1
DILUPBiCGStab:  Solving for k, Initial residual = 0.000219451, Final residual = 7.08968e-09, No Iterations 1
ExecutionTime = 0.04 s  ClockTime = 0 s

Courant Number mean: 0.0060587 max: 0.0316912
Time = 100.16

diagonal:  Solving for rho, Initial residual = 0, Final residual = 0, No Iterations 0
DILUPBiCGStab:  Solving for Ux, Initial residual = 0.00110279, Final residual = 1.2957e-08, No Iterations 1
DILUPBiCGStab:  Solving for Uy, Initial residual = 0.00112383, Final residual = 1.90363e-08, No Iterations 1
DILUPBiCGStab:  Solving for h, Initial residual = 0.000675548, Final residual = 1.1824e-08, No Iterations 1
DICPCG:  Solving for p_rgh, Initial residual = 0.0627304, Final residual = 0.000509848, No Iterations 20
diagonal:  Solving for rho, Initial residual = 0, Final residual = 0, No Iterations 0
time step continuity errors : sum local = 3.96516e-08, global = 5.92788e-10, cumulative = 2.10864e-06
DICPCG:  Solving for p_rgh, Initial residual = 0.000770958, Final residual = 6.01729e-09, No Iterations 34
diagonal:  Solving for rho, Initial residual = 0, Final residual = 0, No Iterations 0
time step continuity errors : sum local = 5.50038e-10, global = 5.50038e-10, cumulative = 2.10919e-06
DILUPBiCGStab:  Solving for epsilon, Initial residual = 0.000295151, Final residual = 6.84834e-09, No Iterations 1
DILUPBiCGStab:  Solving for k, Initial residual = 0.000225708, Final residual = 7.41462e-09, No Iterations 1
ExecutionTime = 0.04 s  ClockTime = 0 s

Courant Number mean: 0.00605789 max: 0.0316455
Time = 100.17

diagonal:  Solving for rho, Initial residual = 0, Final residual = 0, No Iterations 0
DILUPBiCGStab:  Solving for Ux, Initial residual = 0.000227112, Final residual = 5.23361e-09, No Iterations 1
DILUPBiCGStab:  Solving for Uy, Initial residual = 0.000475362, Final residual = 8.42619e-09, No Iterations 1
DILUPBiCGStab:  Solving for h, Initial residual = 0.000706602, Final residual = 1.2074e-08, No Iterations 1
DICPCG:  Solving for p_rgh, Initial residual = 0.0675865, Final residual = 0.00058767, No Iterations 20
diagonal:  Solving for rho, Initial residual = 0, Final residual = 0, No Iterations 0
time step continuity errors : sum local = 3.99965e-08, global = 6.00463e-10, cumulative = 2.10979e-06
DICPCG:  Solving for p_rgh, Initial residual = 0.000615766, Final residual = 6.48377e-09, No Iterations 33
diagonal:  Solving for rho, Initial residual = 0, Final residual = 0, No Iterations 0
time step continuity errors : sum local = 5.03742e-10, global = 5.03742e-10, cumulative = 2.1103e-06
DILUPBiCGStab:  Solving for epsilon, Initial residual = 0.000304191, Final residual = 7.08129e-09, No Iterations 1
DILUPBiCGStab:  Solving for k, Initial residual = 0.000231962, Final residual = 7.75161e-09, No Iterations 1
ExecutionTime = 0.04 s  ClockTime = 0 s

Courant Number mean: 0.00606048 max: 0.0316422
Time = 100.18

diagonal:  Solving for rho, Initial residual = 0, Final residual = 0, No Iterations 0
DILUPBiCGStab:  Solving for Ux, Initial residual = 0.000907813, Final residual = 1.05809e-08, No Iterations 1
DILUPBiCGStab:  Solving for Uy, Initial residual = 0.000894611, Final residual = 1.12308e-08, No Iterations 1
DILUPBiCGStab:  Solving for h, Initial residual = 0.000674688, Final residual = 1.17473e-08, No Iterations 1
DICPCG:  Solving for p_rgh, Initial residual = 0.0451368, Final residual = 0.000315378, No Iterations 16
diagonal:  Solving for rho, Initial residual = 0, Final residual = 0, No Iterations 0
time step continuity errors : sum local = 2.57397e-08, global = 5.22702e-10, cumulative = 2.11082e-06
DICPCG:  Solving for p_rgh, Initial residual = 0.000358293, Final residual = 8.36533e-09, No Iterations 32
diagonal:  Solving for rho, Initial residual = 0, Final residual = 0, No Iterations 0
time step continuity errors : sum local = 3.84623e-10, global = 3.84623e-10, cumulative = 2.1112e-06
DILUPBiCGStab:  Solving for epsilon, Initial residual = 0.000311917, Final residual = 7.29684e-09, No Iterations 1
DILUPBiCGStab:  Solving for k, Initial residual = 0.000238244, Final residual = 8.09639e-09, No Iterations 1
ExecutionTime = 0.04 s  ClockTime = 0 s

Courant Number mean: 0.00606561 max: 0.03167
Time = 100.19

diagonal:  Solving for rho, Initial residual = 0, Final residual = 0, No Iterations 0
DILUPBiCGStab:  Solving for Ux, Initial residual = 0.00150162, Final residual = 1.42032e-08, No Iterations 1
DILUPBiCGStab:  Solving for Uy, Initial residual = 0.00145697, Final residual = 1.78096e-08, No Iterations 1
DILUPBiCGStab:  Solving for h, Initial residual = 0.000592795, Final residual = 1.09643e-08, No Iterations 1
DICPCG:  Solving for p_rgh, Initial residual = 0.0252648, Final residual = 0.000226219, No Iterations 20
diagonal:  Solving for rho, Initial residual = 0, Final residual = 0, No Iterations 0
time step continuity errors : sum local = 2.04529e-08, global = -2.20094e-10, cumulative = 2.11098e-06
DICPCG:  Solving for p_rgh, Initial residual = 0.000246284, Final residual = 4.68562e-09, No Iterations 32
diagonal:  Solving for rho, Initial residual = 0, Final residual = 0, No Iterations 0
time step continuity errors : sum local = 2.20087e-10, global = 2.20087e-10, cumulative = 2.1112e-06
DILUPBiCGStab:  Solving for epsilon, Initial residual = 0.000318848, Final residual = 7.50447e-09, No Iterations 1
DILUPBiCGStab:  Solving for k, Initial residual = 0.00024478, Final residual = 8.44258e-09, No Iterations 1
ExecutionTime = 0.05 s  ClockTime = 0 s

Courant Number mean: 0.00607216 max: 0.0317139
Time = 100.2

diagonal:  Solving for rho, Initial residual = 0, Final residual = 0, No Iterations 0
DILUPBiCGStab:  Solving for Ux, Initial residual = 0.00181414, Final residual = 1.60902e-08, No Iterations 1
DILUPBiCGStab:  Solving for Uy, Initial residual = 0.00177977, Final residual = 2.09086e-08, No Iterations 1
DILUPBiCGStab:  Solving for h, Initial residual = 0.000479896, Final residual = 9.91446e-09, No Iterations 1
DICPCG:  Solving for p_rgh, Initial residual = 0.00788018, Final residual = 5.976e-05, No Iterations 22
diagonal:  Solving for rho, Initial residual = 0, Final residual = 0, No Iterations 0
time step continuity errors : sum local = 5.79457e-09, global = 1.39648e-11, cumulative = 2.11122e-06
DICPCG:  Solving for p_rgh, Initial residual = 7.44606e-05, Final residual = 4.67327e-09, No Iterations 30
diagonal:  Solving for rho, Initial residual = 0, Final residual = 0, No Iterations 0
time step continuity errors : sum local = 4.15471e-11, global = 4.15471e-11, cumulative = 2.11126e-06
DILUPBiCGStab:  Solving for epsilon, Initial residual = 0.000325564, Final residual = 7.69579e-09, No Iterations 1
DILUPBiCGStab:  Solving for k, Initial residual = 0.000251811, Final residual = 8.78214e-09, No Iterations 1
ExecutionTime = 0.05 s  ClockTime = 0 s

Courant Number mean: 0.00607881 max: 0.031758
Time = 100.21

diagonal:  Solving for rho, Initial residual = 0, Final residual = 0, No Iterations 0
DILUPBiCGStab:  Solving for Ux, Initial residual = 0.00182741, Final residual = 1.60564e-08, No Iterations 1
DILUPBiCGStab:  Solving for Uy, Initial residual = 0.00181978, Final residual = 2.10268e-08, No Iterations 1
DILUPBiCGStab:  Solving for h, Initial residual = 0.000358027, Final residual = 8.79595e-09, No Iterations 1
DICPCG:  Solving for p_rgh, Initial residual = 0.0137876, Final residual = 0.000121588, No Iterations 18
diagonal:  Solving for rho, Initial residual = 0, Final residual = 0, No Iterations 0
time step continuity errors : sum local = 1.17398e-08, global = 5.80665e-11, cumulative = 2.11132e-06
DICPCG:  Solving for p_rgh, Initial residual = 0.000165726, Final residual = 5.40638e-09, No Iterations 31
diagonal:  Solving for rho, Initial residual = 0, Final residual = 0, No Iterations 0
time step continuity errors : sum local = 1.21547e-10, global = -1.21484e-10, cumulative = 2.1112e-06
DILUPBiCGStab:  Solving for epsilon, Initial residual = 0.000332153, Final residual = 7.87349e-09, No Iterations 1
DILUPBiCGStab:  Solving for k, Initial residual = 0.000258615, Final residual = 9.1023e-09, No Iterations 1
ExecutionTime = 0.05 s  ClockTime = 0 s

Courant Number mean: 0.00608441 max: 0.0317888
Time = 100.22

diagonal:  Solving for rho, Initial residual = 0, Final residual = 0, No Iterations 0
DILUPBiCGStab:  Solving for Ux, Initial residual = 0.00157207, Final residual = 1.42449e-08, No Iterations 1
DILUPBiCGStab:  Solving for Uy, Initial residual = 0.00160805, Final residual = 1.90362e-08, No Iterations 1
DILUPBiCGStab:  Solving for h, Initial residual = 0.00026231, Final residual = 7.84296e-09, No Iterations 1
DICPCG:  Solving for p_rgh, Initial residual = 0.0236107, Final residual = 0.000158607, No Iterations 20
diagonal:  Solving for rho, Initial residual = 0, Final residual = 0, No Iterations 0
time step continuity errors : sum local = 1.45839e-08, global = 2.15317e-10, cumulative = 2.11141e-06
DICPCG:  Solving for p_rgh, Initial residual = 0.000242451, Final residual = 9.93356e-09, No Iterations 31
diagonal:  Solving for rho, Initial residual = 0, Final residual = 0, No Iterations 0
time step continuity errors : sum local = 2.45466e-10, global = -2.45466e-10, cumulative = 2.11117e-06
DILUPBiCGStab:  Solving for epsilon, Initial residual = 0.000338406, Final residual = 8.03731e-09, No Iterations 1
DILUPBiCGStab:  Solving for k, Initial residual = 0.000264697, Final residual = 9.38946e-09, No Iterations 1
ExecutionTime = 0.05 s  ClockTime = 0 s

Courant Number mean: 0.00608811 max: 0.0317962
Time = 100.23

diagonal:  Solving for rho, Initial residual = 0, Final residual = 0, No Iterations 0
DILUPBiCGStab:  Solving for Ux, Initial residual = 0.0011255, Final residual = 1.13604e-08, No Iterations 1
DILUPBiCGStab:  Solving for Uy, Initial residual = 0.00121266, Final residual = 1.52635e-08, No Iterations 1
DILUPBiCGStab:  Solving for h, Initial residual = 0.000259619, Final residual = 7.66906e-09, No Iterations 1
DICPCG:  Solving for p_rgh, Initial residual = 0.0325229, Final residual = 0.000236828, No Iterations 20
diagonal:  Solving for rho, Initial residual = 0, Final residual = 0, No Iterations 0
time step continuity errors : sum local = 2.02136e-08, global = -2.37001e-10, cumulative = 2.11093e-06
DICPCG:  Solving for p_rgh, Initial residual = 0.000368161, Final residual = 8.84952e-09, No Iterations 32
diagonal:  Solving for rho, Initial residual = 0, Final residual = 0, No Iterations 0
time step continuity errors : sum local = 3.15963e-10, global = -3.15963e-10, cumulative = 2.11061e-06
DILUPBiCGStab:  Solving for epsilon, Initial residual = 0.000344359, Final residual = 8.18916e-09, No Iterations 1
DILUPBiCGStab:  Solving for k, Initial residual = 0.00026959, Final residual = 9.63452e-09, No Iterations 1
ExecutionTime = 0.06 s  ClockTime = 0 s

Courant Number mean: 0.00608949 max: 0.0317752
Time = 100.24

diagonal:  Solving for rho, Initial residual = 0, Final residual = 0, No Iterations 0
DILUPBiCGStab:  Solving for Ux, Initial residual = 0.000587144, Final residual = 7.9418e-09, No Iterations 1
DILUPBiCGStab:  Solving for Uy, Initial residual = 0.00074343, Final residual = 1.08938e-08, No Iterations 1
DILUPBiCGStab:  Solving for h, Initial residual = 0.00030251, Final residual = 8.03349e-09, No Iterations 1
DICPCG:  Solving for p_rgh, Initial residual = 0.0385679, Final residual = 0.000310099, No Iterations 20
diagonal:  Solving for rho, Initial residual = 0, Final residual = 0, No Iterations 0
time step continuity errors : sum local = 2.38363e-08, global = -2.78858e-10, cumulative = 2.11033e-06
DICPCG:  Solving for p_rgh, Initial residual = 0.000459047, Final residual = 9.69271e-09, No Iterations 32
diagonal:  Solving for rho, Initial residual = 0, Final residual = 0, No Iterations 0
time step continuity errors : sum local = 3.28561e-10, global = -3.28561e-10, cumulative = 2.11001e-06
DILUPBiCGStab:  Solving for epsilon, Initial residual = 0.000350125, Final residual = 8.33227e-09, No Iterations 1
DILUPBiCGStab:  Solving for k, Initial residual = 0.0002732, Final residual = 9.83658e-09, No Iterations 1
ExecutionTime = 0.06 s  ClockTime = 0 s

Courant Number mean: 0.00608853 max: 0.0317258
Time = 100.25

diagonal:  Solving for rho, Initial residual = 0, Final residual = 0, No Iterations 0
DILUPBiCGStab:  Solving for Ux, Initial residual = 0.000280413, Final residual = 5.70371e-09, No Iterations 1
DILUPBiCGStab:  Solving for Uy, Initial residual = 0.000440084, Final residual = 8.46102e-09, No Iterations 1
DILUPBiCGStab:  Solving for h, Initial residual = 0.000311251, Final residual = 8.097e-09, No Iterations 1
DICPCG:  Solving for p_rgh, Initial residual = 0.0393636, Final residual = 0.000333894, No Iterations 20
diagonal:  Solving for rho, Initial residual = 0, Final residual = 0, No Iterations 0
time step continuity errors : sum local = 2.28306e-08, global = -2.74184e-10, cumulative = 2.10973e-06
DICPCG:  Solving for p_rgh, Initial residual = 0.000412155, Final residual = 7.68994e-09, No Iterations 32
diagonal:  Solving for rho, Initial residual = 0, Final residual = 0, No Iterations 0
time step continuity errors : sum local = 2.88429e-10, global = -2.88429e-10, cumulative = 2.10944e-06
DILUPBiCGStab:  Solving for epsilon, Initial residual = 0.000355781, Final residual = 8.4694e-09, No Iterations 1
DILUPBiCGStab:  Solving for k, Initial residual = 0.000275738, Final residual = 1.00006e-08, No Iterations 1
ExecutionTime = 0.06 s  ClockTime = 0 s

Courant Number mean: 0.00608558 max: 0.0316524
Time = 100.26

diagonal:  Solving for rho, Initial residual = 0, Final residual = 0, No Iterations 0
DILUPBiCGStab:  Solving for Ux, Initial residual = 0.000688206, Final residual = 9.21829e-09, No Iterations 1
DILUPBiCGStab:  Solving for Uy, Initial residual = 0.000633655, Final residual = 1.24718e-08, No Iterations 1
DILUPBiCGStab:  Solving for h, Initial residual = 0.00028624, Final residual = 7.85762e-09, No Iterations 1
DICPCG:  Solving for p_rgh, Initial residual = 0.02969, Final residual = 0.000217681, No Iterations 16
diagonal:  Solving for rho, Initial residual = 0, Final residual = 0, No Iterations 0
time step continuity errors : sum local = 1.51895e-08, global = -1.92608e-10, cumulative = 2.10925e-06
DICPCG:  Solving for p_rgh, Initial residual = 0.000246703, Final residual = 8.16331e-09, No Iterations 30
diagonal:  Solving for rho, Initial residual = 0, Final residual = 0, No Iterations 0
time step continuity errors : sum local = 2.08307e-10, global = -2.08307e-10, cumulative = 2.10904e-06
DILUPBiCGStab:  Solving for epsilon, Initial residual = 0.000361362, Final residual = 8.60244e-09, No Iterations 1
DILUPBiCGStab:  Solving for k, Initial residual = 0.000277602, Final residual = 1.01371e-08, No Iterations 1
ExecutionTime = 0.06 s  ClockTime = 0 s

Courant Number mean: 0.00608126 max: 0.0315627
Time = 100.27

diagonal:  Solving for rho, Initial residual = 0, Final residual = 0, No Iterations 0
DILUPBiCGStab:  Solving for Ux, Initial residual = 0.00100147, Final residual = 1.07533e-08, No Iterations 1
DILUPBiCGStab:  Solving for Uy, Initial residual = 0.000919386, Final residual = 1.67322e-08, No Iterations 1
DILUPBiCGStab:  Solving for h, Initial residual = 0.000245709, Final residual = 7.52843e-09, No Iterations 1
DICPCG:  Solving for p_rgh, Initial residual = 0.0158997, Final residual = 0.000150463, No Iterations 20
diagonal:  Solving for rho, Initial residual = 0, Final residual = 0, No Iterations 0
time step continuity errors : sum local = 1.1198e-08, global = 1.84302e-10, cumulative = 2.10923e-06
DICPCG:  Solving for p_rgh, Initial residual = 0.000167164, Final residual = 9.79692e-09, No Iterations 30
diagonal:  Solving for rho, Initial residual = 0, Final residual = 0, No Iterations 0
time step continuity errors : sum local = 1.05542e-10, global = -1.05542e-10, cumulative = 2.10912e-06
DILUPBiCGStab:  Solving for epsilon, Initial residual = 0.000366851, Final residual = 8.73288e-09, No Iterations 1
DILUPBiCGStab:  Solving for k, Initial residual = 0.000279361, Final residual = 1.02578e-08, No Iterations 1
ExecutionTime = 0.06 s  ClockTime = 0 s

Courant Number mean: 0.00607631 max: 0.0314658
Time = 100.28

diagonal:  Solving for rho, Initial residual = 0, Final residual = 0, No Iterations 0
DILUPBiCGStab:  Solving for Ux, Initial residual = 0.00113963, Final residual = 1.14535e-08, No Iterations 1
DILUPBiCGStab:  Solving for Uy, Initial residual = 0.00105371, Final residual = 1.85643e-08, No Iterations 1
DILUPBiCGStab:  Solving for h, Initial residual = 0.000273806, Final residual = 7.85216e-09, No Iterations 1
DICPCG:  Solving for p_rgh, Initial residual = 0.00422128, Final residual = 3.67204e-05, No Iterations 22
diagonal:  Solving for rho, Initial residual = 0, Final residual = 0, No Iterations 0
time step continuity errors : sum local = 2.95727e-09, global = 1.39869e-10, cumulative = 2.10926e-06
DICPCG:  Solving for p_rgh, Initial residual = 5.79055e-05, Final residual = 5.74972e-09, No Iterations 29
diagonal:  Solving for rho, Initial residual = 0, Final residual = 0, No Iterations 0
time step continuity errors : sum local = 3.41497e-12, global = 1.05235e-12, cumulative = 2.10926e-06
DILUPBiCGStab:  Solving for epsilon, Initial residual = 0.000372345, Final residual = 8.86112e-09, No Iterations 1
DILUPBiCGStab:  Solving for k, Initial residual = 0.000281154, Final residual = 1.03753e-08, No Iterations 1
ExecutionTime = 0.06 s  ClockTime = 0 s

Courant Number mean: 0.00607151 max: 0.0313711
Time = 100.29

diagonal:  Solving for rho, Initial residual = 0, Final residual = 0, No Iterations 0
DILUPBiCGStab:  Solving for Ux, Initial residual = 0.00110258, Final residual = 1.11984e-08, No Iterations 1
DILUPBiCGStab:  Solving for Uy, Initial residual = 0.00103674, Final residual = 1.82226e-08, No Iterations 1
DILUPBiCGStab:  Solving for h, Initial residual = 0.000336115, Final residual = 8.41012e-09, No Iterations 1
DICPCG:  Solving for p_rgh, Initial residual = 0.0125488, Final residual = 0.000100695, No Iterations 18
diagonal:  Solving for rho, Initial residual = 0, Final residual = 0, No Iterations 0
time step continuity errors : sum local = 7.8846e-09, global = 2.38867e-10, cumulative = 2.1095e-06
DICPCG:  Solving for p_rgh, Initial residual = 0.000139682, Final residual = 5.93355e-09, No Iterations 31
diagonal:  Solving for rho, Initial residual = 0, Final residual = 0, No Iterations 0
time step continuity errors : sum local = 9.4462e-11, global = 9.44497e-11, cumulative = 2.1096e-06
DILUPBiCGStab:  Solving for epsilon, Initial residual = 0.000377725, Final residual = 8.98532e-09, No Iterations 1
DILUPBiCGStab:  Solving for k, Initial residual = 0.000283203, Final residual = 1.04977e-08, No Iterations 1
ExecutionTime = 0.07 s  ClockTime = 0 s

Courant Number mean: 0.00606748 max: 0.0312863
Time = 100.3

diagonal:  Solving for rho, Initial residual = 0, Final residual = 0, No Iterations 0
DILUPBiCGStab:  Solving for Ux, Initial residual = 0.00091763, Final residual = 1.01626e-08, No Iterations 1
DILUPBiCGStab:  Solving for Uy, Initial residual = 0.000870393, Final residual = 1.58708e-08, No Iterations 1
DILUPBiCGStab:  Solving for h, Initial residual = 0.000399513, Final residual = 8.91206e-09, No Iterations 1
DICPCG:  Solving for p_rgh, Initial residual = 0.0190571, Final residual = 0.000154625, No Iterations 20
diagonal:  Solving for rho, Initial residual = 0, Final residual = 0, No Iterations 0
time step continuity errors : sum local = 1.17155e-08, global = 1.76009e-10, cumulative = 2.10977e-06
DICPCG:  Solving for p_rgh, Initial residual = 0.000216484, Final residual = 5.88015e-09, No Iterations 32
diagonal:  Solving for rho, Initial residual = 0, Final residual = 0, No Iterations 0
time step continuity errors : sum local = 1.61715e-10, global = 1.61715e-10, cumulative = 2.10993e-06
DILUPBiCGStab:  Solving for epsilon, Initial residual = 0.000382676, Final residual = 9.10274e-09, No Iterations 1
DILUPBiCGStab:  Solving for k, Initial residual = 0.000285589, Final residual = 1.063e-08, No Iterations 1
ExecutionTime = 0.07 s  ClockTime = 0 s

Courant Number mean: 0.00606467 max: 0.0312168
Time = 100.31

diagonal:  Solving for rho, Initial residual = 0, Final residual = 0, No Iterations 0
DILUPBiCGStab:  Solving for Ux, Initial residual = 0.000631493, Final residual = 8.71683e-09, No Iterations 1
DILUPBiCGStab:  Solving for Uy, Initial residual = 0.0006112, Final residual = 1.19453e-08, No Iterations 1
DILUPBiCGStab:  Solving for h, Initial residual = 0.000445442, Final residual = 9.26782e-09, No Iterations 1
DICPCG:  Solving for p_rgh, Initial residual = 0.0246415, Final residual = 0.000203691, No Iterations 20
diagonal:  Solving for rho, Initial residual = 0, Final residual = 0, No Iterations 0
time step continuity errors : sum local = 1.45286e-08, global = 3.49848e-10, cumulative = 2.11028e-06
DICPCG:  Solving for p_rgh, Initial residual = 0.000275988, Final residual = 6.81541e-09, No Iterations 32
diagonal:  Solving for rho, Initial residual = 0, Final residual = 0, No Iterations 0
time step continuity errors : sum local = 1.95624e-10, global = 1.95624e-10, cumulative = 2.11048e-06
DILUPBiCGStab:  Solving for epsilon, Initial residual = 0.000387054, Final residual = 9.21084e-09, No Iterations 1
DILUPBiCGStab:  Solving for k, Initial residual = 0.000288225, Final residual = 1.07737e-08, No Iterations 1
ExecutionTime = 0.07 s  ClockTime = 0 s

Courant Number mean: 0.00606329 max: 0.031165
Time = 100.32

diagonal:  Solving for rho, Initial residual = 0, Final residual = 0, No Iterations 0
DILUPBiCGStab:  Solving for Ux, Initial residual = 0.000317154, Final residual = 6.47491e-09, No Iterations 1
DILUPBiCGStab:  Solving for Uy, Initial residual = 0.000435976, Final residual = 8.41177e-09, No Iterations 1
DILUPBiCGStab:  Solving for h, Initial residual = 0.000468667, Final residual = 9.42891e-09, No Iterations 1
DICPCG:  Solving for p_rgh, Initial residual = 0.0263363, Final residual = 0.000231559, No Iterations 20
diagonal:  Solving for rho, Initial residual = 0, Final residual = 0, No Iterations 0
time step continuity errors : sum local = 1.58077e-08, global = 3.23832e-10, cumulative = 2.1108e-06
DICPCG:  Solving for p_rgh, Initial residual = 0.000266727, Final residual = 5.90235e-09, No Iterations 32
diagonal:  Solving for rho, Initial residual = 0, Final residual = 0, No Iterations 0
time step continuity errors : sum local = 1.94986e-10, global = 1.94986e-10, cumulative = 2.111e-06
DILUPBiCGStab:  Solving for epsilon, Initial residual = 0.000390795, Final residual = 9.30785e-09, No Iterations 1
DILUPBiCGStab:  Solving for k, Initial residual = 0.000291001, Final residual = 1.09269e-08, No Iterations 1
ExecutionTime = 0.07 s  ClockTime = 0 s

Courant Number mean: 0.00606328 max: 0.0311302
Time = 100.33

diagonal:  Solving for rho, Initial residual = 0, Final residual = 0, No Iterations 0
DILUPBiCGStab:  Solving for Ux, Initial residual = 0.000287712, Final residual = 5.49781e-09, No Iterations 1
DILUPBiCGStab:  Solving for Uy, Initial residual = 0.000460349, Final residual = 8.4239e-09, No Iterations 1
DILUPBiCGStab:  Solving for h, Initial residual = 0.000468372, Final residual = 9.39085e-09, No Iterations 1
DICPCG:  Solving for p_rgh, Initial residual = 0.0214399, Final residual = 0.000214093, No Iterations 18
diagonal:  Solving for rho, Initial residual = 0, Final residual = 0, No Iterations 0
time step continuity errors : sum local = 1.57914e-08, global = 6.58065e-10, cumulative = 2.11166e-06
DICPCG:  Solving for p_rgh, Initial residual = 0.000234725, Final residual = 6.13785e-09, No Iterations 32
diagonal:  Solving for rho, Initial residual = 0, Final residual = 0, No Iterations 0
time step continuity errors : sum local = 1.64126e-10, global = 1.64126e-10, cumulative = 2.11182e-06
DILUPBiCGStab:  Solving for epsilon, Initial residual = 0.000393917, Final residual = 9.39264e-09, No Iterations 1
DILUPBiCGStab:  Solving for k, Initial residual = 0.000293905, Final residual = 1.10864e-08, No Iterations 1
ExecutionTime = 0.08 s  ClockTime = 0 s

Courant Number mean: 0.00606439 max: 0.0311092
Time = 100.34

diagonal:  Solving for rho, Initial residual = 0, Final residual = 0, No Iterations 0
DILUPBiCGStab:  Solving for Ux, Initial residual = 0.000520305, Final residual = 7.26743e-09, No Iterations 1
DILUPBiCGStab:  Solving for Uy, Initial residual = 0.000594442, Final residual = 8.94135e-09, No Iterations 1
DILUPBiCGStab:  Solving for h, Initial residual = 0.000447562, Final residual = 9.18126e-09, No Iterations 1
DICPCG:  Solving for p_rgh, Initial residual = 0.0147427, Final residual = 0.000104306, No Iterations 16
diagonal:  Solving for rho, Initial residual = 0, Final residual = 0, No Iterations 0
time step continuity errors : sum local = 8.17239e-09, global = -8.12829e-11, cumulative = 2.11174e-06
DICPCG:  Solving for p_rgh, Initial residual = 0.000123361, Final residual = 5.20927e-09, No Iterations 28
diagonal:  Solving for rho, Initial residual = 0, Final residual = 0, No Iterations 0
time step continuity errors : sum local = 1.11651e-10, global = 1.11651e-10, cumulative = 2.11185e-06
DILUPBiCGStab:  Solving for epsilon, Initial residual = 0.000396501, Final residual = 9.46512e-09, No Iterations 1
DILUPBiCGStab:  Solving for k, Initial residual = 0.000296883, Final residual = 1.12466e-08, No Iterations 1
ExecutionTime = 0.08 s  ClockTime = 0 s

Courant Number mean: 0.00606622 max: 0.0310971
Time = 100.35

diagonal:  Solving for rho, Initial residual = 0, Final residual = 0, No Iterations 0
DILUPBiCGStab:  Solving for Ux, Initial residual = 0.000681364, Final residual = 7.9814e-09, No Iterations 1
DILUPBiCGStab:  Solving for Uy, Initial residual = 0.000739243, Final residual = 9.86079e-09, No Iterations 1
DILUPBiCGStab:  Solving for h, Initial residual = 0.000412171, Final residual = 8.85508e-09, No Iterations 1
DICPCG:  Solving for p_rgh, Initial residual = 0.00754844, Final residual = 6.46205e-05, No Iterations 21
diagonal:  Solving for rho, Initial residual = 0, Final residual = 0, No Iterations 0
time step continuity errors : sum local = 5.22946e-09, global = 1.23947e-11, cumulative = 2.11186e-06
DICPCG:  Solving for p_rgh, Initial residual = 7.44793e-05, Final residual = 6.60383e-09, No Iterations 28
diagonal:  Solving for rho, Initial residual = 0, Final residual = 0, No Iterations 0
time step continuity errors : sum local = 4.82434e-11, global = 4.82434e-11, cumulative = 2.11191e-06
DILUPBiCGStab:  Solving for epsilon, Initial residual = 0.000398617, Final residual = 9.52565e-09, No Iterations 1
DILUPBiCGStab:  Solving for k, Initial residual = 0.000299733, Final residual = 1.14005e-08, No Iterations 1
ExecutionTime = 0.08 s  ClockTime = 0 s

Courant Number mean: 0.00606832 max: 0.0310884
Time = 100.36

diagonal:  Solving for rho, Initial residual = 0, Final residual = 0, No Iterations 0
DILUPBiCGStab:  Solving for Ux, Initial residual = 0.000738391, Final residual = 8.27924e-09, No Iterations 1
DILUPBiCGStab:  Solving for Uy, Initial residual = 0.0008005, Final residual = 1.04548e-08, No Iterations 1
DILUPBiCGStab:  Solving for h, Initial residual = 0.000369528, Final residual = 8.47827e-09, No Iterations 1
DICPCG:  Solving for p_rgh, Initial residual = 0.00394157, Final residual = 2.4952e-05, No Iterations 22
diagonal:  Solving for rho, Initial residual = 0, Final residual = 0, No Iterations 0
time step continuity errors : sum local = 2.15929e-09, global = 7.15741e-11, cumulative = 2.11198e-06
DICPCG:  Solving for p_rgh, Initial residual = 4.04908e-05, Final residual = 9.14214e-09, No Iterations 26
diagonal:  Solving for rho, Initial residual = 0, Final residual = 0, No Iterations 0
time step continuity errors : sum local = 1.48734e-11, global = -1.47684e-11, cumulative = 2.11197e-06
DILUPBiCGStab:  Solving for epsilon, Initial residual = 0.000400371, Final residual = 9.57536e-09, No Iterations 1
DILUPBiCGStab:  Solving for k, Initial residual = 0.0003024, Final residual = 1.1541e-08, No Iterations 1
ExecutionTime = 0.08 s  ClockTime = 0 s

Courant Number mean: 0.00607024 max: 0.0310776
Time = 100.37

diagonal:  Solving for rho, Initial residual = 0, Final residual = 0, No Iterations 0
DILUPBiCGStab:  Solving for Ux, Initial residual = 0.000693646, Final residual = 7.92699e-09, No Iterations 1
DILUPBiCGStab:  Solving for Uy, Initial residual = 0.000770715, Final residual = 1.03037e-08, No Iterations 1
DILUPBiCGStab:  Solving for h, Initial residual = 0.000328578, Final residual = 8.11282e-09, No Iterations 1
DICPCG:  Solving for p_rgh, Initial residual = 0.00857039, Final residual = 6.65121e-05, No Iterations 19
diagonal:  Solving for rho, Initial residual = 0, Final residual = 0, No Iterations 0
time step continuity errors : sum local = 5.50794e-09, global = -8.39985e-12, cumulative = 2.11196e-06
DICPCG:  Solving for p_rgh, Initial residual = 9.23472e-05, Final residual = 7.76993e-09, No Iterations 29
diagonal:  Solving for rho, Initial residual = 0, Final residual = 0, No Iterations 0
time step continuity errors : sum local = 6.76672e-11, global = -6.76619e-11, cumulative = 2.11189e-06
DILUPBiCGStab:  Solving for epsilon, Initial residual = 0.000401923, Final residual = 9.61584e-09, No Iterations 1
DILUPBiCGStab:  Solving for k, Initial residual = 0.000304733, Final residual = 1.16629e-08, No Iterations 1
ExecutionTime = 0.08 s  ClockTime = 0 s

Courant Number mean: 0.00607161 max: 0.0310603
Time = 100.38

diagonal:  Solving for rho, Initial residual = 0, Final residual = 0, No Iterations 0
DILUPBiCGStab:  Solving for Ux, Initial residual = 0.000567013, Final residual = 7.13636e-09, No Iterations 1
DILUPBiCGStab:  Solving for Uy, Initial residual = 0.000667334, Final residual = 9.59852e-09, No Iterations 1
DILUPBiCGStab:  Solving for h, Initial residual = 0.000297893, Final residual = 7.81751e-09, No Iterations 1
DICPCG:  Solving for p_rgh, Initial residual = 0.012079, Final residual = 9.63518e-05, No Iterations 20
diagonal:  Solving for rho, Initial residual = 0, Final residual = 0, No Iterations 0
time step continuity errors : sum local = 7.69956e-09, global = 3.38819e-11, cumulative = 2.11193e-06
DICPCG:  Solving for p_rgh, Initial residual = 0.000133004, Final residual = 5.80624e-09, No Iterations 31
diagonal:  Solving for rho, Initial residual = 0, Final residual = 0, No Iterations 0
time step continuity errors : sum local = 1.03427e-10, global = -1.03427e-10, cumulative = 2.11182e-06
DILUPBiCGStab:  Solving for epsilon, Initial residual = 0.000403293, Final residual = 9.64807e-09, No Iterations 1
DILUPBiCGStab:  Solving for k, Initial residual = 0.000306569, Final residual = 1.17614e-08, No Iterations 1
ExecutionTime = 0.09 s  ClockTime = 0 s

Courant Number mean: 0.00607221 max: 0.0310338
Time = 100.39

diagonal:  Solving for rho, Initial residual = 0, Final residual = 0, No Iterations 0
DILUPBiCGStab:  Solving for Ux, Initial residual = 0.000392274, Final residual = 6.05191e-09, No Iterations 1
DILUPBiCGStab:  Solving for Uy, Initial residual = 0.000528921, Final residual = 8.64659e-09, No Iterations 1
DILUPBiCGStab:  Solving for h, Initial residual = 0.000279782, Final residual = 7.61983e-09, No Iterations 1
DICPCG:  Solving for p_rgh, Initial residual = 0.0144124, Final residual = 0.000114781, No Iterations 20
diagonal:  Solving for rho, Initial residual = 0, Final residual = 0, No Iterations 0
time step continuity errors : sum local = 8.77113e-09, global = -8.45658e-11, cumulative = 2.11174e-06
DICPCG:  Solving for p_rgh, Initial residual = 0.000158484, Final residual = 8.80976e-09, No Iterations 31
diagonal:  Solving for rho, Initial residual = 0, Final residual = 0, No Iterations 0
time step continuity errors : sum local = 1.18625e-10, global = -1.18625e-10, cumulative = 2.11162e-06
DILUPBiCGStab:  Solving for epsilon, Initial residual = 0.000404538, Final residual = 9.67355e-09, No Iterations 1
DILUPBiCGStab:  Solving for k, Initial residual = 0.000307895, Final residual = 1.18352e-08, No Iterations 1
ExecutionTime = 0.09 s  ClockTime = 0 s

Courant Number mean: 0.00607196 max: 0.0309971
Time = 100.4

diagonal:  Solving for rho, Initial residual = 0, Final residual = 0, No Iterations 0
DILUPBiCGStab:  Solving for Ux, Initial residual = 0.00022825, Final residual = 4.60522e-09, No Iterations 1
DILUPBiCGStab:  Solving for Uy, Initial residual = 0.000420044, Final residual = 8.01027e-09, No Iterations 1
DILUPBiCGStab:  Solving for h, Initial residual = 0.00027304, Final residual = 7.52835e-09, No Iterations 1
DICPCG:  Solving for p_rgh, Initial residual = 0.0147635, Final residual = 0.00012065, No Iterations 20
diagonal:  Solving for rho, Initial residual = 0, Final residual = 0, No Iterations 0
time step continuity errors : sum local = 8.85119e-09, global = -8.64065e-11, cumulative = 2.11153e-06
DICPCG:  Solving for p_rgh, Initial residual = 0.000161985, Final residual = 8.51262e-09, No Iterations 31
diagonal:  Solving for rho, Initial residual = 0, Final residual = 0, No Iterations 0
time step continuity errors : sum local = 1.13419e-10, global = -1.13419e-10, cumulative = 2.11142e-06
DILUPBiCGStab:  Solving for epsilon, Initial residual = 0.000405672, Final residual = 9.69362e-09, No Iterations 1
DILUPBiCGStab:  Solving for k, Initial residual = 0.000308763, Final residual = 1.18858e-08, No Iterations 1
ExecutionTime = 0.09 s  ClockTime = 0 s

Courant Number mean: 0.0060709 max: 0.0309511
Time = 100.41

diagonal:  Solving for rho, Initial residual = 0, Final residual = 0, No Iterations 0
DILUPBiCGStab:  Solving for Ux, Initial residual = 0.000260551, Final residual = 5.43348e-09, No Iterations 1
DILUPBiCGStab:  Solving for Uy, Initial residual = 0.000414232, Final residual = 7.84215e-09, No Iterations 1
DILUPBiCGStab:  Solving for h, Initial residual = 0.000275899, Final residual = 7.5321e-09, No Iterations 1
DICPCG:  Solving for p_rgh, Initial residual = 0.0129143, Final residual = 0.000110394, No Iterations 18
diagonal:  Solving for rho, Initial residual = 0, Final residual = 0, No Iterations 0
time step continuity errors : sum local = 7.85097e-09, global = -2.04034e-10, cumulative = 2.11122e-06
DICPCG:  Solving for p_rgh, Initial residual = 0.000132896, Final residual = 5.83631e-09, No Iterations 31
diagonal:  Solving for rho, Initial residual = 0, Final residual = 0, No Iterations 0
time step continuity errors : sum local = 9.10871e-11, global = -9.10871e-11, cumulative = 2.11112e-06
DILUPBiCGStab:  Solving for epsilon, Initial residual = 0.000406772, Final residual = 9.70917e-09, No Iterations 1
DILUPBiCGStab:  Solving for k, Initial residual = 0.000309263, Final residual = 1.19172e-08, No Iterations 1
ExecutionTime = 0.09 s  ClockTime = 0 s

Courant Number mean: 0.00606924 max: 0.0308979
Time = 100.42

diagonal:  Solving for rho, Initial residual = 0, Final residual = 0, No Iterations 0
DILUPBiCGStab:  Solving for Ux, Initial residual = 0.000376596, Final residual = 6.51953e-09, No Iterations 1
DILUPBiCGStab:  Solving for Uy, Initial residual = 0.000450877, Final residual = 8.85504e-09, No Iterations 1
DILUPBiCGStab:  Solving for h, Initial residual = 0.000287185, Final residual = 7.6153e-09, No Iterations 1
DICPCG:  Solving for p_rgh, Initial residual = 0.00911104, Final residual = 6.62081e-05, No Iterations 16
diagonal:  Solving for rho, Initial residual = 0, Final residual = 0, No Iterations 0
time step continuity errors : sum local = 4.66785e-09, global = 2.48545e-10, cumulative = 2.11137e-06
DICPCG:  Solving for p_rgh, Initial residual = 8.16374e-05, Final residual = 8.88167e-09, No Iterations 30
diagonal:  Solving for rho, Initial residual = 0, Final residual = 0, No Iterations 0
time step continuity errors : sum local = 5.72966e-11, global = -5.72966e-11, cumulative = 2.11132e-06
DILUPBiCGStab:  Solving for epsilon, Initial residual = 0.000407824, Final residual = 9.72083e-09, No Iterations 1
DILUPBiCGStab:  Solving for k, Initial residual = 0.000309511, Final residual = 1.19349e-08, No Iterations 1
ExecutionTime = 0.1 s  ClockTime = 0 s

Courant Number mean: 0.00606721 max: 0.0308407
Time = 100.43

diagonal:  Solving for rho, Initial residual = 0, Final residual = 0, No Iterations 0
DILUPBiCGStab:  Solving for Ux, Initial residual = 0.000453118, Final residual = 6.75318e-09, No Iterations 1
DILUPBiCGStab:  Solving for Uy, Initial residual = 0.000489732, Final residual = 9.72885e-09, No Iterations 1
DILUPBiCGStab:  Solving for h, Initial residual = 0.000305944, Final residual = 7.75608e-09, No Iterations 1
DICPCG:  Solving for p_rgh, Initial residual = 0.0043041, Final residual = 3.08635e-05, No Iterations 21
diagonal:  Solving for rho, Initial residual = 0, Final residual = 0, No Iterations 0
time step continuity errors : sum local = 2.28243e-09, global = 1.26773e-10, cumulative = 2.11144e-06
DICPCG:  Solving for p_rgh, Initial residual = 4.4104e-05, Final residual = 5.50341e-09, No Iterations 29
diagonal:  Solving for rho, Initial residual = 0, Final residual = 0, No Iterations 0
time step continuity errors : sum local = 1.86001e-11, global = -1.86001e-11, cumulative = 2.11142e-06
DILUPBiCGStab:  Solving for epsilon, Initial residual = 0.000408745, Final residual = 9.72891e-09, No Iterations 1
DILUPBiCGStab:  Solving for k, Initial residual = 0.000309625, Final residual = 1.19451e-08, No Iterations 1
ExecutionTime = 0.1 s  ClockTime = 0 s

Courant Number mean: 0.00606509 max: 0.0307829
Time = 100.44

diagonal:  Solving for rho, Initial residual = 0, Final residual = 0, No Iterations 0
DILUPBiCGStab:  Solving for Ux, Initial residual = 0.000469537, Final residual = 6.67769e-09, No Iterations 1
DILUPBiCGStab:  Solving for Uy, Initial residual = 0.000500443, Final residual = 9.92425e-09, No Iterations 1
DILUPBiCGStab:  Solving for h, Initial residual = 0.00032923, Final residual = 7.9241e-09, No Iterations 1
DICPCG:  Solving for p_rgh, Initial residual = 0.00401957, Final residual = 3.35874e-05, No Iterations 20
diagonal:  Solving for rho, Initial residual = 0, Final residual = 0, No Iterations 0
time step continuity errors : sum local = 2.43593e-09, global = 3.38054e-11, cumulative = 2.11146e-06
DICPCG:  Solving for p_rgh, Initial residual = 4.61279e-05, Final residual = 5.68453e-09, No Iterations 28
diagonal:  Solving for rho, Initial residual = 0, Final residual = 0, No Iterations 0
time step continuity errors : sum local = 1.83204e-11, global = 1.82968e-11, cumulative = 2.11148e-06
DILUPBiCGStab:  Solving for epsilon, Initial residual = 0.000409476, Final residual = 9.73248e-09, No Iterations 1
DILUPBiCGStab:  Solving for k, Initial residual = 0.000309743, Final residual = 1.19525e-08, No Iterations 1
ExecutionTime = 0.1 s  ClockTime = 0 s

Courant Number mean: 0.00606315 max: 0.0307277
Time = 100.45

diagonal:  Solving for rho, Initial residual = 0, Final residual = 0, No Iterations 0
DILUPBiCGStab:  Solving for Ux, Initial residual = 0.000429185, Final residual = 6.49387e-09, No Iterations 1
DILUPBiCGStab:  Solving for Uy, Initial residual = 0.000476819, Final residual = 9.4636e-09, No Iterations 1
DILUPBiCGStab:  Solving for h, Initial residual = 0.000353104, Final residual = 8.0866e-09, No Iterations 1
DICPCG:  Solving for p_rgh, Initial residual = 0.00692764, Final residual = 6.69815e-05, No Iterations 19
diagonal:  Solving for rho, Initial residual = 0, Final residual = 0, No Iterations 0
time step continuity errors : sum local = 4.7933e-09, global = 1.71703e-10, cumulative = 2.11165e-06
DICPCG:  Solving for p_rgh, Initial residual = 8.48464e-05, Final residual = 9.31849e-09, No Iterations 30
diagonal:  Solving for rho, Initial residual = 0, Final residual = 0, No Iterations 0
time step continuity errors : sum local = 4.78847e-11, global = 4.78847e-11, cumulative = 2.1117e-06
DILUPBiCGStab:  Solving for epsilon, Initial residual = 0.000409956, Final residual = 9.73078e-09, No Iterations 1
DILUPBiCGStab:  Solving for k, Initial residual = 0.000309946, Final residual = 1.19605e-08, No Iterations 1
ExecutionTime = 0.1 s  ClockTime = 0 s

Courant Number mean: 0.00606158 max: 0.0306774
Time = 100.46

diagonal:  Solving for rho, Initial residual = 0, Final residual = 0, No Iterations 0
DILUPBiCGStab:  Solving for Ux, Initial residual = 0.000347465, Final residual = 6.06546e-09, No Iterations 1
DILUPBiCGStab:  Solving for Uy, Initial residual = 0.000434105, Final residual = 8.54866e-09, No Iterations 1
DILUPBiCGStab:  Solving for h, Initial residual = 0.00037312, Final residual = 8.21397e-09, No Iterations 1
DICPCG:  Solving for p_rgh, Initial residual = 0.00906234, Final residual = 8.10445e-05, No Iterations 20
diagonal:  Solving for rho, Initial residual = 0, Final residual = 0, No Iterations 0
time step continuity errors : sum local = 5.76172e-09, global = 2.36278e-10, cumulative = 2.11193e-06
DICPCG:  Solving for p_rgh, Initial residual = 9.9604e-05, Final residual = 7.40286e-09, No Iterations 29
diagonal:  Solving for rho, Initial residual = 0, Final residual = 0, No Iterations 0
time step continuity errors : sum local = 6.64923e-11, global = 6.64923e-11, cumulative = 2.112e-06
DILUPBiCGStab:  Solving for epsilon, Initial residual = 0.000410137, Final residual = 9.72301e-09, No Iterations 1
DILUPBiCGStab:  Solving for k, Initial residual = 0.000310195, Final residual = 1.1971e-08, No Iterations 1
ExecutionTime = 0.11 s  ClockTime = 0 s

Courant Number mean: 0.00606051 max: 0.0306334
Time = 100.47

diagonal:  Solving for rho, Initial residual = 0, Final residual = 0, No Iterations 0
DILUPBiCGStab:  Solving for Ux, Initial residual = 0.000248428, Final residual = 5.1438e-09, No Iterations 1
DILUPBiCGStab:  Solving for Uy, Initial residual = 0.000398179, Final residual = 7.61925e-09, No Iterations 1
DILUPBiCGStab:  Solving for h, Initial residual = 0.000385809, Final residual = 8.28351e-09, No Iterations 1
DICPCG:  Solving for p_rgh, Initial residual = 0.0098446, Final residual = 9.32687e-05, No Iterations 20
diagonal:  Solving for rho, Initial residual = 0, Final residual = 0, No Iterations 0
time step continuity errors : sum local = 6.65773e-09, global = 2.41285e-10, cumulative = 2.11224e-06
DICPCG:  Solving for p_rgh, Initial residual = 0.000108254, Final residual = 7.19514e-09, No Iterations 30
diagonal:  Solving for rho, Initial residual = 0, Final residual = 0, No Iterations 0
time step continuity errors : sum local = 7.25518e-11, global = 7.25518e-11, cumulative = 2.11231e-06
DILUPBiCGStab:  Solving for epsilon, Initial residual = 0.000409988, Final residual = 9.70849e-09, No Iterations 1
DILUPBiCGStab:  Solving for k, Initial residual = 0.000310489, Final residual = 1.1984e-08, No Iterations 1
ExecutionTime = 0.11 s  ClockTime = 0 s

Courant Number mean: 0.00605995 max: 0.0305961
Time = 100.48

diagonal:  Solving for rho, Initial residual = 0, Final residual = 0, No Iterations 0
DILUPBiCGStab:  Solving for Ux, Initial residual = 0.00018343, Final residual = 3.99199e-09, No Iterations 1
DILUPBiCGStab:  Solving for Uy, Initial residual = 0.000381747, Final residual = 7.23978e-09, No Iterations 1
DILUPBiCGStab:  Solving for h, Initial residual = 0.000390117, Final residual = 8.28752e-09, No Iterations 1
DICPCG:  Solving for p_rgh, Initial residual = 0.00907353, Final residual = 8.13745e-05, No Iterations 20
diagonal:  Solving for rho, Initial residual = 0, Final residual = 0, No Iterations 0
time step continuity errors : sum local = 5.97037e-09, global = 2.22507e-10, cumulative = 2.11253e-06
DICPCG:  Solving for p_rgh, Initial residual = 9.31613e-05, Final residual = 8.53133e-09, No Iterations 30
diagonal:  Solving for rho, Initial residual = 0, Final residual = 0, No Iterations 0
time step continuity errors : sum local = 6.66561e-11, global = 6.66561e-11, cumulative = 2.1126e-06
DILUPBiCGStab:  Solving for epsilon, Initial residual = 0.000409504, Final residual = 9.68674e-09, No Iterations 1
DILUPBiCGStab:  Solving for k, Initial residual = 0.000310805, Final residual = 1.1998e-08, No Iterations 1
ExecutionTime = 0.11 s  ClockTime = 0 s

Courant Number mean: 0.00605986 max: 0.0305648
Time = 100.49

diagonal:  Solving for rho, Initial residual = 0, Final residual = 0, No Iterations 0
DILUPBiCGStab:  Solving for Ux, Initial residual = 0.000236676, Final residual = 4.36212e-09, No Iterations 1
DILUPBiCGStab:  Solving for Uy, Initial residual = 0.000401933, Final residual = 7.48845e-09, No Iterations 1
DILUPBiCGStab:  Solving for h, Initial residual = 0.000386452, Final residual = 8.22995e-09, No Iterations 1
DICPCG:  Solving for p_rgh, Initial residual = 0.0072311, Final residual = 6.2707e-05, No Iterations 16
diagonal:  Solving for rho, Initial residual = 0, Final residual = 0, No Iterations 0
time step continuity errors : sum local = 4.81944e-09, global = 1.51956e-10, cumulative = 2.11275e-06
DICPCG:  Solving for p_rgh, Initial residual = 7.32784e-05, Final residual = 6.73019e-09, No Iterations 28
diagonal:  Solving for rho, Initial residual = 0, Final residual = 0, No Iterations 0
time step continuity errors : sum local = 5.12223e-11, global = 5.12223e-11, cumulative = 2.1128e-06
DILUPBiCGStab:  Solving for epsilon, Initial residual = 0.0004087, Final residual = 9.65753e-09, No Iterations 1
DILUPBiCGStab:  Solving for k, Initial residual = 0.00031109, Final residual = 1.20105e-08, No Iterations 1
ExecutionTime = 0.11 s  ClockTime = 0 s

Courant Number mean: 0.00606011 max: 0.0305379
Time = 100.5

diagonal:  Solving for rho, Initial residual = 0, Final residual = 0, No Iterations 0
DILUPBiCGStab:  Solving for Ux, Initial residual = 0.000297902, Final residual = 4.72988e-09, No Iterations 1
DILUPBiCGStab:  Solving for Uy, Initial residual = 0.000424289, Final residual = 7.60891e-09, No Iterations 1
DILUPBiCGStab:  Solving for h, Initial residual = 0.000376432, Final residual = 8.12436e-09, No Iterations 1
DICPCG:  Solving for p_rgh, Initial residual = 0.0047747, Final residual = 3.76553e-05, No Iterations 20
diagonal:  Solving for rho, Initial residual = 0, Final residual = 0, No Iterations 0
time step continuity errors : sum local = 2.91216e-09, global = 6.165e-11, cumulative = 2.11287e-06
DICPCG:  Solving for p_rgh, Initial residual = 4.2835e-05, Final residual = 5.01152e-09, No Iterations 30
diagonal:  Solving for rho, Initial residual = 0, Final residual = 0, No Iterations 0
time step continuity errors : sum local = 2.97782e-11, global = 2.97782e-11, cumulative = 2.1129e-06
DILUPBiCGStab:  Solving for epsilon, Initial residual = 0.000407612, Final residual = 9.62104e-09, No Iterations 1
DILUPBiCGStab:  Solving for k, Initial residual = 0.000311292, Final residual = 1.20182e-08, No Iterations 1
ExecutionTime = 0.12 s  ClockTime = 0 s

Courant Number mean: 0.00606054 max: 0.0305136
Time = 100.51

diagonal:  Solving for rho, Initial residual = 0, Final residual = 0, No Iterations 0
DILUPBiCGStab:  Solving for Ux, Initial residual = 0.000332669, Final residual = 4.88063e-09, No Iterations 1
DILUPBiCGStab:  Solving for Uy, Initial residual = 0.000441478, Final residual = 7.66483e-09, No Iterations 1
DILUPBiCGStab:  Solving for h, Initial residual = 0.000362482, Final residual = 7.9903e-09, No Iterations 1
DICPCG:  Solving for p_rgh, Initial residual = 0.00215985, Final residual = 1.85593e-05, No Iterations 21
diagonal:  Solving for rho, Initial residual = 0, Final residual = 0, No Iterations 0
time step continuity errors : sum local = 1.5148e-09, global = 7.13974e-11, cumulative = 2.11297e-06
DICPCG:  Solving for p_rgh, Initial residual = 2.75545e-05, Final residual = 6.93516e-09, No Iterations 28
diagonal:  Solving for rho, Initial residual = 0, Final residual = 0, No Iterations 0
time step continuity errors : sum local = 6.46347e-12, global = 6.44826e-12, cumulative = 2.11297e-06
DILUPBiCGStab:  Solving for epsilon, Initial residual = 0.000406285, Final residual = 9.57769e-09, No Iterations 1
DILUPBiCGStab:  Solving for k, Initial residual = 0.000311359, Final residual = 1.20179e-08, No Iterations 1
ExecutionTime = 0.12 s  ClockTime = 0 s

Courant Number mean: 0.00606099 max: 0.0304897
Time = 100.52

diagonal:  Solving for rho, Initial residual = 0, Final residual = 0, No Iterations 0
DILUPBiCGStab:  Solving for Ux, Initial residual = 0.000333496, Final residual = 4.79552e-09, No Iterations 1
DILUPBiCGStab:  Solving for Uy, Initial residual = 0.000442846, Final residual = 7.64997e-09, No Iterations 1
DILUPBiCGStab:  Solving for h, Initial residual = 0.00034752, Final residual = 7.84897e-09, No Iterations 1
DICPCG:  Solving for p_rgh, Initial residual = 0.0029252, Final residual = 2.46103e-05, No Iterations 19
diagonal:  Solving for rho, Initial residual = 0, Final residual = 0, No Iterations 0
time step continuity errors : sum local = 2.02439e-09, global = 7.67621e-11, cumulative = 2.11305e-06
DICPCG:  Solving for p_rgh, Initial residual = 3.55311e-05, Final residual = 5.34354e-09, No Iterations 29
diagonal:  Solving for rho, Initial residual = 0, Final residual = 0, No Iterations 0
time step continuity errors : sum local = 1.4942e-11, global = -1.49307e-11, cumulative = 2.11304e-06
DILUPBiCGStab:  Solving for epsilon, Initial residual = 0.000404769, Final residual = 9.52811e-09, No Iterations 1
DILUPBiCGStab:  Solving for k, Initial residual = 0.000311247, Final residual = 1.20068e-08, No Iterations 1
ExecutionTime = 0.12 s  ClockTime = 0 s

Courant Number mean: 0.00606131 max: 0.0304644
Time = 100.53

diagonal:  Solving for rho, Initial residual = 0, Final residual = 0, No Iterations 0
DILUPBiCGStab:  Solving for Ux, Initial residual = 0.000303557, Final residual = 4.50736e-09, No Iterations 1
DILUPBiCGStab:  Solving for Uy, Initial residual = 0.000423987, Final residual = 7.52351e-09, No Iterations 1
DILUPBiCGStab:  Solving for h, Initial residual = 0.000334369, Final residual = 7.72124e-09, No Iterations 1
DICPCG:  Solving for p_rgh, Initial residual = 0.00437763, Final residual = 3.49767e-05, No Iterations 20
diagonal:  Solving for rho, Initial residual = 0, Final residual = 0, No Iterations 0
time step continuity errors : sum local = 2.81826e-09, global = 1.15227e-10, cumulative = 2.11315e-06
DICPCG:  Solving for p_rgh, Initial residual = 4.78991e-05, Final residual = 6.57515e-09, No Iterations 29
diagonal:  Solving for rho, Initial residual = 0, Final residual = 0, No Iterations 0
time step continuity errors : sum local = 3.12925e-11, global = -3.12902e-11, cumulative = 2.11312e-06
DILUPBiCGStab:  Solving for epsilon, Initial residual = 0.000403111, Final residual = 9.47309e-09, No Iterations 1
DILUPBiCGStab:  Solving for k, Initial residual = 0.000310932, Final residual = 1.19831e-08, No Iterations 1
ExecutionTime = 0.12 s  ClockTime = 0 s

Courant Number mean: 0.00606139 max: 0.0304366
Time = 100.54

diagonal:  Solving for rho, Initial residual = 0, Final residual = 0, No Iterations 0
DILUPBiCGStab:  Solving for Ux, Initial residual = 0.000254465, Final residual = 4.09827e-09, No Iterations 1
DILUPBiCGStab:  Solving for Uy, Initial residual = 0.000400693, Final residual = 7.33552e-09, No Iterations 1
DILUPBiCGStab:  Solving for h, Initial residual = 0.00032484, Final residual = 7.62172e-09, No Iterations 1
DICPCG:  Solving for p_rgh, Initial residual = 0.00544793, Final residual = 4.86267e-05, No Iterations 20
diagonal:  Solving for rho, Initial residual = 0, Final residual = 0, No Iterations 0
time step continuity errors : sum local = 3.84065e-09, global = 3.63583e-11, cumulative = 2.11316e-06
DICPCG:  Solving for p_rgh, Initial residual = 6.16149e-05, Final residual = 5.91943e-09, No Iterations 30
diagonal:  Solving for rho, Initial residual = 0, Final residual = 0, No Iterations 0
time step continuity errors : sum local = 4.06451e-11, global = -4.06451e-11, cumulative = 2.11311e-06
DILUPBiCGStab:  Solving for epsilon, Initial residual = 0.000401347, Final residual = 9.41329e-09, No Iterations 1
DILUPBiCGStab:  Solving for k, Initial residual = 0.000310403, Final residual = 1.19461e-08, No Iterations 1
ExecutionTime = 0.12 s  ClockTime = 0 s

Courant Number mean: 0.00606117 max: 0.0304447
Time = 100.55

diagonal:  Solving for rho, Initial residual = 0, Final residual = 0, No Iterations 0
DILUPBiCGStab:  Solving for Ux, Initial residual = 0.000201281, Final residual = 3.63864e-09, No Iterations 1
DILUPBiCGStab:  Solving for Uy, Initial residual = 0.000378813, Final residual = 7.09769e-09, No Iterations 1
DILUPBiCGStab:  Solving for h, Initial residual = 0.000319666, Final residual = 7.55686e-09, No Iterations 1
DICPCG:  Solving for p_rgh, Initial residual = 0.00579877, Final residual = 5.39305e-05, No Iterations 20
diagonal:  Solving for rho, Initial residual = 0, Final residual = 0, No Iterations 0
time step continuity errors : sum local = 4.15132e-09, global = 5.2976e-13, cumulative = 2.11312e-06
DICPCG:  Solving for p_rgh, Initial residual = 6.68583e-05, Final residual = 7.43076e-09, No Iterations 30
diagonal:  Solving for rho, Initial residual = 0, Final residual = 0, No Iterations 0
time step continuity errors : sum local = 4.24594e-11, global = -4.24594e-11, cumulative = 2.11307e-06
DILUPBiCGStab:  Solving for epsilon, Initial residual = 0.0003995, Final residual = 9.34936e-09, No Iterations 1
DILUPBiCGStab:  Solving for k, Initial residual = 0.000309683, Final residual = 1.18962e-08, No Iterations 1
ExecutionTime = 0.13 s  ClockTime = 0 s

Courant Number mean: 0.00606064 max: 0.0304724
Time = 100.56

diagonal:  Solving for rho, Initial residual = 0, Final residual = 0, No Iterations 0
DILUPBiCGStab:  Solving for Ux, Initial residual = 0.000173563, Final residual = 3.42246e-09, No Iterations 1
DILUPBiCGStab:  Solving for Uy, Initial residual = 0.000364541, Final residual = 6.82929e-09, No Iterations 1
DILUPBiCGStab:  Solving for h, Initial residual = 0.000318945, Final residual = 7.5276e-09, No Iterations 1
DICPCG:  Solving for p_rgh, Initial residual = 0.00539972, Final residual = 4.93087e-05, No Iterations 20
diagonal:  Solving for rho, Initial residual = 0, Final residual = 0, No Iterations 0
time step continuity errors : sum local = 3.74415e-09, global = 5.43273e-12, cumulative = 2.11308e-06
DICPCG:  Solving for p_rgh, Initial residual = 6.04286e-05, Final residual = 6.26178e-09, No Iterations 30
diagonal:  Solving for rho, Initial residual = 0, Final residual = 0, No Iterations 0
time step continuity errors : sum local = 3.73518e-11, global = -3.73518e-11, cumulative = 2.11304e-06
DILUPBiCGStab:  Solving for epsilon, Initial residual = 0.00039758, Final residual = 9.2818e-09, No Iterations 1
DILUPBiCGStab:  Solving for k, Initial residual = 0.000308803, Final residual = 1.1835e-08, No Iterations 1
ExecutionTime = 0.13 s  ClockTime = 0 s

Courant Number mean: 0.00605986 max: 0.030498
Time = 100.57

diagonal:  Solving for rho, Initial residual = 0, Final residual = 0, No Iterations 0
DILUPBiCGStab:  Solving for Ux, Initial residual = 0.000197317, Final residual = 3.81904e-09, No Iterations 1
DILUPBiCGStab:  Solving for Uy, Initial residual = 0.000367161, Final residual = 6.9472e-09, No Iterations 1
DILUPBiCGStab:  Solving for h, Initial residual = 0.000322259, Final residual = 7.53029e-09, No Iterations 1
DICPCG:  Solving for p_rgh, Initial residual = 0.00432651, Final residual = 3.64884e-05, No Iterations 16
diagonal:  Solving for rho, Initial residual = 0, Final residual = 0, No Iterations 0
time step continuity errors : sum local = 2.77958e-09, global = 2.18452e-11, cumulative = 2.11306e-06
DICPCG:  Solving for p_rgh, Initial residual = 4.70734e-05, Final residual = 9.95889e-09, No Iterations 28
diagonal:  Solving for rho, Initial residual = 0, Final residual = 0, No Iterations 0
time step continuity errors : sum local = 2.69807e-11, global = -2.69807e-11, cumulative = 2.11304e-06
DILUPBiCGStab:  Solving for epsilon, Initial residual = 0.000395583, Final residual = 9.21101e-09, No Iterations 1
DILUPBiCGStab:  Solving for k, Initial residual = 0.000307784, Final residual = 1.17645e-08, No Iterations 1
ExecutionTime = 0.13 s  ClockTime = 0 s

Courant Number mean: 0.0060589 max: 0.030522
Time = 100.58

diagonal:  Solving for rho, Initial residual = 0, Final residual = 0, No Iterations 0
DILUPBiCGStab:  Solving for Ux, Initial residual = 0.000222213, Final residual = 4.07365e-09, No Iterations 1
DILUPBiCGStab:  Solving for Uy, Initial residual = 0.000376557, Final residual = 7.15523e-09, No Iterations 1
DILUPBiCGStab:  Solving for h, Initial residual = 0.000328736, Final residual = 7.55727e-09, No Iterations 1
DICPCG:  Solving for p_rgh, Initial residual = 0.00281784, Final residual = 2.25409e-05, No Iterations 17
diagonal:  Solving for rho, Initial residual = 0, Final residual = 0, No Iterations 0
time step continuity errors : sum local = 1.75812e-09, global = 1.3999e-10, cumulative = 2.11318e-06
DICPCG:  Solving for p_rgh, Initial residual = 3.08739e-05, Final residual = 5.77327e-09, No Iterations 29
diagonal:  Solving for rho, Initial residual = 0, Final residual = 0, No Iterations 0
time step continuity errors : sum local = 1.35883e-11, global = -1.3585e-11, cumulative = 2.11316e-06
DILUPBiCGStab:  Solving for epsilon, Initial residual = 0.000393491, Final residual = 9.1371e-09, No Iterations 1
DILUPBiCGStab:  Solving for k, Initial residual = 0.000306661, Final residual = 1.16987e-08, No Iterations 1
ExecutionTime = 0.14 s  ClockTime = 0 s

Courant Number mean: 0.00605786 max: 0.030545
Time = 100.59

diagonal:  Solving for rho, Initial residual = 0, Final residual = 0, No Iterations 0
DILUPBiCGStab:  Solving for Ux, Initial residual = 0.000235467, Final residual = 4.11898e-09, No Iterations 1
DILUPBiCGStab:  Solving for Uy, Initial residual = 0.000381033, Final residual = 7.24948e-09, No Iterations 1
DILUPBiCGStab:  Solving for h, Initial residual = 0.00033716, Final residual = 7.59835e-09, No Iterations 1
DICPCG:  Solving for p_rgh, Initial residual = 0.00135401, Final residual = 1.27434e-05, No Iterations 20
diagonal:  Solving for rho, Initial residual = 0, Final residual = 0, No Iterations 0
time step continuity errors : sum local = 1.05558e-09, global = 9.45037e-11, cumulative = 2.11326e-06
[...]
time step continuity errors : sum local = 5.69684e-13, global = -4.03611e-16, cumulative = 2.16258e-06
DILUPBiCGStab:  Solving for epsilon, Initial residual = 1.78446e-05, Final residual = 1.08588e-10, No Iterations 1
DILUPBiCGStab:  Solving for k, Initial residual = 4.98072e-05, Final residual = 5.1851e-10, No Iterations 1
ExecutionTime = 6.04 s  ClockTime = 6 s

Courant Number mean: 0.00577055 max: 0.0306936
Time = 125.86

diagonal:  Solving for rho, Initial residual = 0, Final residual = 0, No Iterations 0
DILUPBiCGStab:  Solving for Ux, Initial residual = 7.43884e-05, Final residual = 5.2718e-10, No Iterations 1
DILUPBiCGStab:  Solving for Uy, Initial residual = 0.000106857, Final residual = 9.63639e-10, No Iterations 1
DILUPBiCGStab:  Solving for h, Initial residual = 0.000118895, Final residual = 9.04332e-10, No Iterations 1
DICPCG:  Solving for p_rgh, Initial residual = 5.34127e-05, Final residual = 4.04283e-07, No Iterations 17
diagonal:  Solving for rho, Initial residual = 0, Final residual = 0, No Iterations 0
time step continuity errors : sum local = 6.2045e-11, global = -1.08361e-11, cumulative = 2.16257e-06
DICPCG:  Solving for p_rgh, Initial residual = 7.90698e-07, Final residual = 6.71259e-09, No Iterations 23
diagonal:  Solving for rho, Initial residual = 0, Final residual = 0, No Iterations 0
time step continuity errors : sum local = 5.80955e-13, global = 1.60946e-15, cumulative = 2.16257e-06
DILUPBiCGStab:  Solving for epsilon, Initial residual = 1.7847e-05, Final residual = 1.08614e-10, No Iterations 1
DILUPBiCGStab:  Solving for k, Initial residual = 4.98208e-05, Final residual = 5.1865e-10, No Iterations 1
ExecutionTime = 6.04 s  ClockTime = 6 s

Courant Number mean: 0.00577045 max: 0.0306941
Time = 125.87

diagonal:  Solving for rho, Initial residual = 0, Final residual = 0, No Iterations 0
DILUPBiCGStab:  Solving for Ux, Initial residual = 7.44006e-05, Final residual = 5.27228e-10, No Iterations 1
DILUPBiCGStab:  Solving for Uy, Initial residual = 0.000106838, Final residual = 9.63391e-10, No Iterations 1
DILUPBiCGStab:  Solving for h, Initial residual = 0.000118872, Final residual = 9.0422e-10, No Iterations 1
DICPCG:  Solving for p_rgh, Initial residual = 5.34129e-05, Final residual = 4.04171e-07, No Iterations 17
diagonal:  Solving for rho, Initial residual = 0, Final residual = 0, No Iterations 0
time step continuity errors : sum local = 6.20183e-11, global = -1.08364e-11, cumulative = 2.16256e-06
DICPCG:  Solving for p_rgh, Initial residual = 7.90362e-07, Final residual = 6.70909e-09, No Iterations 23
diagonal:  Solving for rho, Initial residual = 0, Final residual = 0, No Iterations 0
time step continuity errors : sum local = 5.93939e-13, global = 7.2189e-15, cumulative = 2.16256e-06
DILUPBiCGStab:  Solving for epsilon, Initial residual = 1.78494e-05, Final residual = 1.0864e-10, No Iterations 1
DILUPBiCGStab:  Solving for k, Initial residual = 4.98344e-05, Final residual = 5.18789e-10, No Iterations 1
ExecutionTime = 6.04 s  ClockTime = 6 s

Courant Number mean: 0.00577035 max: 0.0306945
Time = 125.88

diagonal:  Solving for rho, Initial residual = 0, Final residual = 0, No Iterations 0
DILUPBiCGStab:  Solving for Ux, Initial residual = 7.44129e-05, Final residual = 5.27276e-10, No Iterations 1
DILUPBiCGStab:  Solving for Uy, Initial residual = 0.000106819, Final residual = 9.63145e-10, No Iterations 1
DILUPBiCGStab:  Solving for h, Initial residual = 0.000118848, Final residual = 9.04107e-10, No Iterations 1
DICPCG:  Solving for p_rgh, Initial residual = 5.34125e-05, Final residual = 4.04067e-07, No Iterations 17
diagonal:  Solving for rho, Initial residual = 0, Final residual = 0, No Iterations 0
time step continuity errors : sum local = 6.1989e-11, global = -1.08492e-11, cumulative = 2.16254e-06
DICPCG:  Solving for p_rgh, Initial residual = 7.8995e-07, Final residual = 6.70131e-09, No Iterations 23
diagonal:  Solving for rho, Initial residual = 0, Final residual = 0, No Iterations 0
time step continuity errors : sum local = 5.85557e-13, global = -1.7249e-15, cumulative = 2.16254e-06
DILUPBiCGStab:  Solving for epsilon, Initial residual = 1.78518e-05, Final residual = 1.08666e-10, No Iterations 1
DILUPBiCGStab:  Solving for k, Initial residual = 4.9848e-05, Final residual = 5.18928e-10, No Iterations 1
ExecutionTime = 6.05 s  ClockTime = 6 s

Courant Number mean: 0.00577025 max: 0.030695
Time = 125.89

diagonal:  Solving for rho, Initial residual = 0, Final residual = 0, No Iterations 0
DILUPBiCGStab:  Solving for Ux, Initial residual = 7.44253e-05, Final residual = 5.27323e-10, No Iterations 1
DILUPBiCGStab:  Solving for Uy, Initial residual = 0.0001068, Final residual = 9.62898e-10, No Iterations 1
DILUPBiCGStab:  Solving for h, Initial residual = 0.000118824, Final residual = 9.03994e-10, No Iterations 1
DICPCG:  Solving for p_rgh, Initial residual = 5.34123e-05, Final residual = 4.03974e-07, No Iterations 17
diagonal:  Solving for rho, Initial residual = 0, Final residual = 0, No Iterations 0
time step continuity errors : sum local = 6.19743e-11, global = -1.0854e-11, cumulative = 2.16253e-06
DICPCG:  Solving for p_rgh, Initial residual = 7.89899e-07, Final residual = 6.70095e-09, No Iterations 23
diagonal:  Solving for rho, Initial residual = 0, Final residual = 0, No Iterations 0
time step continuity errors : sum local = 5.78588e-13, global = 2.22733e-15, cumulative = 2.16253e-06
DILUPBiCGStab:  Solving for epsilon, Initial residual = 1.78541e-05, Final residual = 1.08691e-10, No Iterations 1
DILUPBiCGStab:  Solving for k, Initial residual = 4.98615e-05, Final residual = 5.19068e-10, No Iterations 1
ExecutionTime = 6.05 s  ClockTime = 6 s

Courant Number mean: 0.00577015 max: 0.0306954
Time = 125.9

diagonal:  Solving for rho, Initial residual = 0, Final residual = 0, No Iterations 0
DILUPBiCGStab:  Solving for Ux, Initial residual = 7.44379e-05, Final residual = 5.2737e-10, No Iterations 1
DILUPBiCGStab:  Solving for Uy, Initial residual = 0.000106781, Final residual = 9.62651e-10, No Iterations 1
DILUPBiCGStab:  Solving for h, Initial residual = 0.0001188, Final residual = 9.03881e-10, No Iterations 1
DICPCG:  Solving for p_rgh, Initial residual = 5.34123e-05, Final residual = 4.03892e-07, No Iterations 17
diagonal:  Solving for rho, Initial residual = 0, Final residual = 0, No Iterations 0
time step continuity errors : sum local = 6.19379e-11, global = -1.08602e-11, cumulative = 2.16252e-06
DICPCG:  Solving for p_rgh, Initial residual = 7.89657e-07, Final residual = 6.70053e-09, No Iterations 23
diagonal:  Solving for rho, Initial residual = 0, Final residual = 0, No Iterations 0
time step continuity errors : sum local = 5.81658e-13, global = 1.75812e-15, cumulative = 2.16252e-06
DILUPBiCGStab:  Solving for epsilon, Initial residual = 1.78565e-05, Final residual = 1.08717e-10, No Iterations 1
DILUPBiCGStab:  Solving for k, Initial residual = 4.98749e-05, Final residual = 5.19209e-10, No Iterations 1
ExecutionTime = 6.05 s  ClockTime = 6 s

Courant Number mean: 0.00577005 max: 0.0306959
Time = 125.91

diagonal:  Solving for rho, Initial residual = 0, Final residual = 0, No Iterations 0
DILUPBiCGStab:  Solving for Ux, Initial residual = 7.44505e-05, Final residual = 5.27417e-10, No Iterations 1
DILUPBiCGStab:  Solving for Uy, Initial residual = 0.000106762, Final residual = 9.62403e-10, No Iterations 1
DILUPBiCGStab:  Solving for h, Initial residual = 0.000118776, Final residual = 9.03768e-10, No Iterations 1
DICPCG:  Solving for p_rgh, Initial residual = 5.34118e-05, Final residual = 4.03849e-07, No Iterations 17
diagonal:  Solving for rho, Initial residual = 0, Final residual = 0, No Iterations 0
time step continuity errors : sum local = 6.19312e-11, global = -1.08768e-11, cumulative = 2.16251e-06
DICPCG:  Solving for p_rgh, Initial residual = 7.8954e-07, Final residual = 6.69413e-09, No Iterations 23
diagonal:  Solving for rho, Initial residual = 0, Final residual = 0, No Iterations 0
time step continuity errors : sum local = 5.90746e-13, global = 1.97985e-15, cumulative = 2.16251e-06
DILUPBiCGStab:  Solving for epsilon, Initial residual = 1.78589e-05, Final residual = 1.08743e-10, No Iterations 1
DILUPBiCGStab:  Solving for k, Initial residual = 4.98884e-05, Final residual = 5.1935e-10, No Iterations 1
ExecutionTime = 6.05 s  ClockTime = 6 s

Courant Number mean: 0.00576995 max: 0.0306963
Time = 125.92

diagonal:  Solving for rho, Initial residual = 0, Final residual = 0, No Iterations 0
DILUPBiCGStab:  Solving for Ux, Initial residual = 7.4463e-05, Final residual = 5.27463e-10, No Iterations 1
DILUPBiCGStab:  Solving for Uy, Initial residual = 0.000106743, Final residual = 9.62153e-10, No Iterations 1
DILUPBiCGStab:  Solving for h, Initial residual = 0.000118752, Final residual = 9.03654e-10, No Iterations 1
DICPCG:  Solving for p_rgh, Initial residual = 5.34056e-05, Final residual = 4.03798e-07, No Iterations 17
diagonal:  Solving for rho, Initial residual = 0, Final residual = 0, No Iterations 0
time step continuity errors : sum local = 6.19077e-11, global = -1.08808e-11, cumulative = 2.1625e-06
DICPCG:  Solving for p_rgh, Initial residual = 7.89438e-07, Final residual = 6.69273e-09, No Iterations 23
diagonal:  Solving for rho, Initial residual = 0, Final residual = 0, No Iterations 0
time step continuity errors : sum local = 5.9178e-13, global = -1.54884e-16, cumulative = 2.1625e-06
DILUPBiCGStab:  Solving for epsilon, Initial residual = 1.78614e-05, Final residual = 1.08768e-10, No Iterations 1
DILUPBiCGStab:  Solving for k, Initial residual = 4.9902e-05, Final residual = 5.19492e-10, No Iterations 1
ExecutionTime = 6.05 s  ClockTime = 6 s

Courant Number mean: 0.00576985 max: 0.0306968
Time = 125.93

diagonal:  Solving for rho, Initial residual = 0, Final residual = 0, No Iterations 0
DILUPBiCGStab:  Solving for Ux, Initial residual = 7.44755e-05, Final residual = 5.27508e-10, No Iterations 1
DILUPBiCGStab:  Solving for Uy, Initial residual = 0.000106724, Final residual = 9.61904e-10, No Iterations 1
DILUPBiCGStab:  Solving for h, Initial residual = 0.000118728, Final residual = 9.0354e-10, No Iterations 1
DICPCG:  Solving for p_rgh, Initial residual = 5.34067e-05, Final residual = 4.03778e-07, No Iterations 17
diagonal:  Solving for rho, Initial residual = 0, Final residual = 0, No Iterations 0
time step continuity errors : sum local = 6.18788e-11, global = -1.08858e-11, cumulative = 2.16249e-06
DICPCG:  Solving for p_rgh, Initial residual = 7.89044e-07, Final residual = 6.69153e-09, No Iterations 23
diagonal:  Solving for rho, Initial residual = 0, Final residual = 0, No Iterations 0
time step continuity errors : sum local = 5.91798e-13, global = -4.42644e-15, cumulative = 2.16249e-06
DILUPBiCGStab:  Solving for epsilon, Initial residual = 1.78639e-05, Final residual = 1.08794e-10, No Iterations 1
DILUPBiCGStab:  Solving for k, Initial residual = 4.99161e-05, Final residual = 5.19633e-10, No Iterations 1
ExecutionTime = 6.06 s  ClockTime = 6 s

Courant Number mean: 0.00576975 max: 0.0306972
Time = 125.94

diagonal:  Solving for rho, Initial residual = 0, Final residual = 0, No Iterations 0
DILUPBiCGStab:  Solving for Ux, Initial residual = 7.4488e-05, Final residual = 5.27554e-10, No Iterations 1
DILUPBiCGStab:  Solving for Uy, Initial residual = 0.000106705, Final residual = 9.61653e-10, No Iterations 1
DILUPBiCGStab:  Solving for h, Initial residual = 0.000118704, Final residual = 9.03425e-10, No Iterations 1
DICPCG:  Solving for p_rgh, Initial residual = 5.34078e-05, Final residual = 4.03782e-07, No Iterations 17
diagonal:  Solving for rho, Initial residual = 0, Final residual = 0, No Iterations 0
time step continuity errors : sum local = 6.18687e-11, global = -1.09044e-11, cumulative = 2.16248e-06
DICPCG:  Solving for p_rgh, Initial residual = 7.88914e-07, Final residual = 6.68197e-09, No Iterations 23
diagonal:  Solving for rho, Initial residual = 0, Final residual = 0, No Iterations 0
time step continuity errors : sum local = 5.74855e-13, global = 2.87013e-15, cumulative = 2.16248e-06
DILUPBiCGStab:  Solving for epsilon, Initial residual = 1.78665e-05, Final residual = 1.0882e-10, No Iterations 1
DILUPBiCGStab:  Solving for k, Initial residual = 4.99301e-05, Final residual = 5.19775e-10, No Iterations 1
ExecutionTime = 6.06 s  ClockTime = 6 s

Courant Number mean: 0.00576965 max: 0.0306977
Time = 125.95

diagonal:  Solving for rho, Initial residual = 0, Final residual = 0, No Iterations 0
DILUPBiCGStab:  Solving for Ux, Initial residual = 7.45004e-05, Final residual = 5.27598e-10, No Iterations 1
DILUPBiCGStab:  Solving for Uy, Initial residual = 0.000106686, Final residual = 9.61403e-10, No Iterations 1
DILUPBiCGStab:  Solving for h, Initial residual = 0.00011868, Final residual = 9.0331e-10, No Iterations 1
DICPCG:  Solving for p_rgh, Initial residual = 5.34088e-05, Final residual = 4.03807e-07, No Iterations 17
diagonal:  Solving for rho, Initial residual = 0, Final residual = 0, No Iterations 0
time step continuity errors : sum local = 6.18491e-11, global = -1.09119e-11, cumulative = 2.16247e-06
DICPCG:  Solving for p_rgh, Initial residual = 7.88814e-07, Final residual = 6.67859e-09, No Iterations 23
diagonal:  Solving for rho, Initial residual = 0, Final residual = 0, No Iterations 0
time step continuity errors : sum local = 5.88149e-13, global = 1.55091e-15, cumulative = 2.16247e-06
DILUPBiCGStab:  Solving for epsilon, Initial residual = 1.7869e-05, Final residual = 1.08845e-10, No Iterations 1
DILUPBiCGStab:  Solving for k, Initial residual = 4.9944e-05, Final residual = 5.19916e-10, No Iterations 1
ExecutionTime = 6.06 s  ClockTime = 6 s

Courant Number mean: 0.00576955 max: 0.0306981
Time = 125.96

diagonal:  Solving for rho, Initial residual = 0, Final residual = 0, No Iterations 0
DILUPBiCGStab:  Solving for Ux, Initial residual = 7.45128e-05, Final residual = 5.27643e-10, No Iterations 1
DILUPBiCGStab:  Solving for Uy, Initial residual = 0.000106667, Final residual = 9.61151e-10, No Iterations 1
DILUPBiCGStab:  Solving for h, Initial residual = 0.000118655, Final residual = 9.03195e-10, No Iterations 1
DICPCG:  Solving for p_rgh, Initial residual = 5.34106e-05, Final residual = 4.03791e-07, No Iterations 17
diagonal:  Solving for rho, Initial residual = 0, Final residual = 0, No Iterations 0
time step continuity errors : sum local = 6.18225e-11, global = -1.0926e-11, cumulative = 2.16246e-06
DICPCG:  Solving for p_rgh, Initial residual = 7.88588e-07, Final residual = 6.6775e-09, No Iterations 23
diagonal:  Solving for rho, Initial residual = 0, Final residual = 0, No Iterations 0
time step continuity errors : sum local = 5.83011e-13, global = 3.29035e-15, cumulative = 2.16246e-06
DILUPBiCGStab:  Solving for epsilon, Initial residual = 1.78717e-05, Final residual = 1.08871e-10, No Iterations 1
DILUPBiCGStab:  Solving for k, Initial residual = 4.99579e-05, Final residual = 5.20056e-10, No Iterations 1
ExecutionTime = 6.06 s  ClockTime = 6 s

Courant Number mean: 0.00576945 max: 0.0306986
Time = 125.97

diagonal:  Solving for rho, Initial residual = 0, Final residual = 0, No Iterations 0
DILUPBiCGStab:  Solving for Ux, Initial residual = 7.45251e-05, Final residual = 5.27696e-10, No Iterations 1
DILUPBiCGStab:  Solving for Uy, Initial residual = 0.000106648, Final residual = 9.609e-10, No Iterations 1
DILUPBiCGStab:  Solving for h, Initial residual = 0.000118631, Final residual = 9.0308e-10, No Iterations 1
DICPCG:  Solving for p_rgh, Initial residual = 5.34121e-05, Final residual = 4.03791e-07, No Iterations 17
diagonal:  Solving for rho, Initial residual = 0, Final residual = 0, No Iterations 0
time step continuity errors : sum local = 6.18295e-11, global = -1.09295e-11, cumulative = 2.16245e-06
DICPCG:  Solving for p_rgh, Initial residual = 7.88449e-07, Final residual = 6.6736e-09, No Iterations 23
diagonal:  Solving for rho, Initial residual = 0, Final residual = 0, No Iterations 0
time step continuity errors : sum local = 5.87387e-13, global = 4.41772e-15, cumulative = 2.16245e-06
DILUPBiCGStab:  Solving for epsilon, Initial residual = 1.78743e-05, Final residual = 1.08896e-10, No Iterations 1
DILUPBiCGStab:  Solving for k, Initial residual = 4.99717e-05, Final residual = 5.20196e-10, No Iterations 1
ExecutionTime = 6.07 s  ClockTime = 6 s

Courant Number mean: 0.00576935 max: 0.030699
Time = 125.98

diagonal:  Solving for rho, Initial residual = 0, Final residual = 0, No Iterations 0
DILUPBiCGStab:  Solving for Ux, Initial residual = 7.45375e-05, Final residual = 5.27748e-10, No Iterations 1
DILUPBiCGStab:  Solving for Uy, Initial residual = 0.000106629, Final residual = 9.60648e-10, No Iterations 1
DILUPBiCGStab:  Solving for h, Initial residual = 0.000118607, Final residual = 9.02964e-10, No Iterations 1
DICPCG:  Solving for p_rgh, Initial residual = 5.34137e-05, Final residual = 4.03771e-07, No Iterations 17
diagonal:  Solving for rho, Initial residual = 0, Final residual = 0, No Iterations 0
time step continuity errors : sum local = 6.17962e-11, global = -1.09385e-11, cumulative = 2.16244e-06
DICPCG:  Solving for p_rgh, Initial residual = 7.88246e-07, Final residual = 6.67223e-09, No Iterations 23
diagonal:  Solving for rho, Initial residual = 0, Final residual = 0, No Iterations 0
time step continuity errors : sum local = 5.87173e-13, global = 3.81147e-15, cumulative = 2.16244e-06
DILUPBiCGStab:  Solving for epsilon, Initial residual = 1.78769e-05, Final residual = 1.08921e-10, No Iterations 1
DILUPBiCGStab:  Solving for k, Initial residual = 4.99855e-05, Final residual = 5.20336e-10, No Iterations 1
ExecutionTime = 6.07 s  ClockTime = 6 s

Courant Number mean: 0.00576925 max: 0.0306995
Time = 125.99

diagonal:  Solving for rho, Initial residual = 0, Final residual = 0, No Iterations 0
DILUPBiCGStab:  Solving for Ux, Initial residual = 7.45503e-05, Final residual = 5.27799e-10, No Iterations 1
DILUPBiCGStab:  Solving for Uy, Initial residual = 0.00010661, Final residual = 9.604e-10, No Iterations 1
DILUPBiCGStab:  Solving for h, Initial residual = 0.000118583, Final residual = 9.02848e-10, No Iterations 1
DICPCG:  Solving for p_rgh, Initial residual = 5.34154e-05, Final residual = 4.03737e-07, No Iterations 17
diagonal:  Solving for rho, Initial residual = 0, Final residual = 0, No Iterations 0
time step continuity errors : sum local = 6.17782e-11, global = -1.09482e-11, cumulative = 2.16242e-06
DICPCG:  Solving for p_rgh, Initial residual = 7.88094e-07, Final residual = 6.67122e-09, No Iterations 23
diagonal:  Solving for rho, Initial residual = 0, Final residual = 0, No Iterations 0
time step continuity errors : sum local = 5.91849e-13, global = 3.64123e-15, cumulative = 2.16242e-06
DILUPBiCGStab:  Solving for epsilon, Initial residual = 1.78796e-05, Final residual = 1.08947e-10, No Iterations 1
DILUPBiCGStab:  Solving for k, Initial residual = 4.99992e-05, Final residual = 5.20475e-10, No Iterations 1
ExecutionTime = 6.07 s  ClockTime = 6 s

Courant Number mean: 0.00576915 max: 0.0307
Time = 126

diagonal:  Solving for rho, Initial residual = 0, Final residual = 0, No Iterations 0
DILUPBiCGStab:  Solving for Ux, Initial residual = 7.45636e-05, Final residual = 5.2785e-10, No Iterations 1
DILUPBiCGStab:  Solving for Uy, Initial residual = 0.000106591, Final residual = 9.60159e-10, No Iterations 1
DILUPBiCGStab:  Solving for h, Initial residual = 0.000118558, Final residual = 9.02732e-10, No Iterations 1
DICPCG:  Solving for p_rgh, Initial residual = 5.34172e-05, Final residual = 4.03692e-07, No Iterations 17
diagonal:  Solving for rho, Initial residual = 0, Final residual = 0, No Iterations 0
time step continuity errors : sum local = 6.176e-11, global = -1.0953e-11, cumulative = 2.16241e-06
DICPCG:  Solving for p_rgh, Initial residual = 7.88006e-07, Final residual = 6.66352e-09, No Iterations 23
diagonal:  Solving for rho, Initial residual = 0, Final residual = 0, No Iterations 0
