/*---------------------------------------------------------------------------*\
  =========                 |
  \\      /  F ield         | OpenFOAM: The Open Source CFD Toolbox
   \\    /   O peration     | Website:  https://openfoam.org
    \\  /    A nd           | Version:  6
     \\/     M anipulation  |
\*---------------------------------------------------------------------------*/
Build  : 6-f934eabb0d52
Exec   : buoyantPimpleFoam -case /home/mamitsu/OpenFOAM/mamitsu-6/run/aircond5/Case/case2
Date   : May 15 2019
Time   : 17:26:09
Host   : "mamitsu-desktop"
PID    : 5801
I/O    : uncollated
Case   : /home/mamitsu/OpenFOAM/mamitsu-6/run/aircond5/Case/case2
nProcs : 1
sigFpe : Enabling floating point exception trapping (FOAM_SIGFPE).
fileModificationChecking : Monitoring run-time modified files using timeStampMaster (fileModificationSkew 10)
allowSystemOperations : Allowing user-supplied system call operations

// * * * * * * * * * * * * * * * * * * * * * * * * * * * * * * * * * * * * * //
Create time

Create mesh for time = 100


PIMPLE: No convergence criteria found


PIMPLE: Operating solver in PISO mode

Reading thermophysical properties

Selecting thermodynamics package
{
    type            heRhoThermo;
    mixture         pureMixture;
    transport       const;
    thermo          hConst;
    equationOfState perfectGas;
    specie          specie;
    energy          sensibleEnthalpy;
}

Reading field U

Reading/calculating face flux field phi

Creating turbulence model

Selecting turbulence model type RAS
Selecting RAS turbulence model kEpsilon
RAS
{
    RASModel        kEpsilon;
    turbulence      on;
    printCoeffs     on;
    Cmu             0.09;
    C1              1.44;
    C2              1.92;
    C3              0;
    sigmak          1;
    sigmaEps        1.3;
}


Reading g

Reading hRef
Calculating field g.h

Reading field p_rgh

Creating field dpdt

Creating field kinetic energy K

No MRF models present

Radiation model not active: radiationProperties not found
Selecting radiationModel none
No finite volume options present
Courant Number mean: 0.00835475 max: 0.033375

Starting time loop

Courant Number mean: 0.00835475 max: 0.033375
Time = 100.01

diagonal:  Solving for rho, Initial residual = 0, Final residual = 0, No Iterations 0
DILUPBiCGStab:  Solving for Ux, Initial residual = 0.00205538, Final residual = 8.03911e-08, No Iterations 1
DILUPBiCGStab:  Solving for Uy, Initial residual = 0.0753298, Final residual = 9.28375e-11, No Iterations 1
DILUPBiCGStab:  Solving for h, Initial residual = 0.000191873, Final residual = 3.94111e-09, No Iterations 1
DICPCG:  Solving for p_rgh, Initial residual = 0.941051, Final residual = 0.00843347, No Iterations 19
diagonal:  Solving for rho, Initial residual = 0, Final residual = 0, No Iterations 0
time step continuity errors : sum local = 1.04737e-05, global = -4.10101e-07, cumulative = -4.10101e-07
DICPCG:  Solving for p_rgh, Initial residual = 0.0473551, Final residual = 6.96134e-09, No Iterations 37
diagonal:  Solving for rho, Initial residual = 0, Final residual = 0, No Iterations 0
time step continuity errors : sum local = 2.29033e-09, global = -2.29033e-09, cumulative = -4.12391e-07
DILUPBiCGStab:  Solving for epsilon, Initial residual = 0.000182035, Final residual = 5.36805e-09, No Iterations 1
DILUPBiCGStab:  Solving for k, Initial residual = 0.000187312, Final residual = 7.08587e-09, No Iterations 1
ExecutionTime = 0 s  ClockTime = 0 s

Courant Number mean: 0.00828367 max: 0.0358489
Time = 100.02

diagonal:  Solving for rho, Initial residual = 0, Final residual = 0, No Iterations 0
DILUPBiCGStab:  Solving for Ux, Initial residual = 0.0156184, Final residual = 4.70555e-07, No Iterations 1
DILUPBiCGStab:  Solving for Uy, Initial residual = 0.0139313, Final residual = 4.83388e-07, No Iterations 1
DILUPBiCGStab:  Solving for h, Initial residual = 0.00025694, Final residual = 5.78173e-09, No Iterations 1
DICPCG:  Solving for p_rgh, Initial residual = 0.291406, Final residual = 0.00233702, No Iterations 24
diagonal:  Solving for rho, Initial residual = 0, Final residual = 0, No Iterations 0
time step continuity errors : sum local = 5.21165e-07, global = 3.07721e-09, cumulative = -4.09314e-07
DICPCG:  Solving for p_rgh, Initial residual = 0.00624242, Final residual = 8.96051e-09, No Iterations 37
diagonal:  Solving for rho, Initial residual = 0, Final residual = 0, No Iterations 0
time step continuity errors : sum local = 1.70903e-09, global = -1.45484e-09, cumulative = -4.10769e-07
DILUPBiCGStab:  Solving for epsilon, Initial residual = 0.000174714, Final residual = 5.25463e-09, No Iterations 1
DILUPBiCGStab:  Solving for k, Initial residual = 0.000188105, Final residual = 6.60865e-09, No Iterations 1
ExecutionTime = 0 s  ClockTime = 0 s

Courant Number mean: 0.00825457 max: 0.0352268
Time = 100.03

diagonal:  Solving for rho, Initial residual = 0, Final residual = 0, No Iterations 0
DILUPBiCGStab:  Solving for Ux, Initial residual = 0.00725722, Final residual = 1.20685e-07, No Iterations 1
DILUPBiCGStab:  Solving for Uy, Initial residual = 0.00629755, Final residual = 2.15896e-07, No Iterations 1
DILUPBiCGStab:  Solving for h, Initial residual = 0.000706996, Final residual = 1.35067e-08, No Iterations 1
DICPCG:  Solving for p_rgh, Initial residual = 0.095766, Final residual = 0.000679269, No Iterations 22
diagonal:  Solving for rho, Initial residual = 0, Final residual = 0, No Iterations 0
time step continuity errors : sum local = 1.6257e-07, global = -4.43004e-11, cumulative = -4.10813e-07
DICPCG:  Solving for p_rgh, Initial residual = 0.00124094, Final residual = 4.26658e-09, No Iterations 35
diagonal:  Solving for rho, Initial residual = 0, Final residual = 0, No Iterations 0
time step continuity errors : sum local = 1.497e-09, global = -1.35564e-09, cumulative = -4.12169e-07
DILUPBiCGStab:  Solving for epsilon, Initial residual = 0.00016239, Final residual = 5.06365e-09, No Iterations 1
DILUPBiCGStab:  Solving for k, Initial residual = 0.000180437, Final residual = 6.21739e-09, No Iterations 1
ExecutionTime = 0 s  ClockTime = 0 s

Courant Number mean: 0.0082368 max: 0.0347485
Time = 100.04

diagonal:  Solving for rho, Initial residual = 0, Final residual = 0, No Iterations 0
DILUPBiCGStab:  Solving for Ux, Initial residual = 0.00506106, Final residual = 1.38491e-07, No Iterations 1
DILUPBiCGStab:  Solving for Uy, Initial residual = 0.00584897, Final residual = 2.22038e-07, No Iterations 1
DILUPBiCGStab:  Solving for h, Initial residual = 0.000643649, Final residual = 1.09011e-08, No Iterations 1
DICPCG:  Solving for p_rgh, Initial residual = 0.0461997, Final residual = 0.000396174, No Iterations 22
diagonal:  Solving for rho, Initial residual = 0, Final residual = 0, No Iterations 0
time step continuity errors : sum local = 1.06215e-07, global = 2.12435e-10, cumulative = -4.11956e-07
DICPCG:  Solving for p_rgh, Initial residual = 0.000590345, Final residual = 5.09725e-09, No Iterations 34
diagonal:  Solving for rho, Initial residual = 0, Final residual = 0, No Iterations 0
time step continuity errors : sum local = 7.46499e-10, global = -6.96893e-10, cumulative = -4.12653e-07
DILUPBiCGStab:  Solving for epsilon, Initial residual = 0.000158037, Final residual = 5.25874e-09, No Iterations 1
DILUPBiCGStab:  Solving for k, Initial residual = 0.000175298, Final residual = 6.21681e-09, No Iterations 1
ExecutionTime = 0.01 s  ClockTime = 0 s

Courant Number mean: 0.00822748 max: 0.0343651
Time = 100.05

diagonal:  Solving for rho, Initial residual = 0, Final residual = 0, No Iterations 0
DILUPBiCGStab:  Solving for Ux, Initial residual = 0.010148, Final residual = 2.09036e-07, No Iterations 1
DILUPBiCGStab:  Solving for Uy, Initial residual = 0.00540329, Final residual = 1.86726e-07, No Iterations 1
DILUPBiCGStab:  Solving for h, Initial residual = 0.000444542, Final residual = 8.79452e-09, No Iterations 1
DICPCG:  Solving for p_rgh, Initial residual = 0.00730573, Final residual = 6.05046e-05, No Iterations 22
diagonal:  Solving for rho, Initial residual = 0, Final residual = 0, No Iterations 0
time step continuity errors : sum local = 1.73718e-08, global = 8.76557e-11, cumulative = -4.12565e-07
DICPCG:  Solving for p_rgh, Initial residual = 0.00010636, Final residual = 6.44439e-09, No Iterations 31
diagonal:  Solving for rho, Initial residual = 0, Final residual = 0, No Iterations 0
time step continuity errors : sum local = 1.08995e-10, global = 1.08921e-10, cumulative = -4.12457e-07
DILUPBiCGStab:  Solving for epsilon, Initial residual = 0.000162731, Final residual = 6.08406e-09, No Iterations 1
DILUPBiCGStab:  Solving for k, Initial residual = 0.000176184, Final residual = 6.52751e-09, No Iterations 1
ExecutionTime = 0.01 s  ClockTime = 0 s

Courant Number mean: 0.0082218 max: 0.0339752
Time = 100.06

diagonal:  Solving for rho, Initial residual = 0, Final residual = 0, No Iterations 0
DILUPBiCGStab:  Solving for Ux, Initial residual = 0.00991426, Final residual = 2.05639e-07, No Iterations 1
DILUPBiCGStab:  Solving for Uy, Initial residual = 0.00529785, Final residual = 1.90028e-07, No Iterations 1
DILUPBiCGStab:  Solving for h, Initial residual = 0.000223201, Final residual = 7.2591e-09, No Iterations 1
DICPCG:  Solving for p_rgh, Initial residual = 0.0257403, Final residual = 0.000150309, No Iterations 21
diagonal:  Solving for rho, Initial residual = 0, Final residual = 0, No Iterations 0
time step continuity errors : sum local = 4.24224e-08, global = 1.99752e-10, cumulative = -4.12257e-07
DICPCG:  Solving for p_rgh, Initial residual = 0.000321876, Final residual = 7.5836e-09, No Iterations 32
diagonal:  Solving for rho, Initial residual = 0, Final residual = 0, No Iterations 0
time step continuity errors : sum local = 8.5893e-10, global = 8.5893e-10, cumulative = -4.11398e-07
DILUPBiCGStab:  Solving for epsilon, Initial residual = 0.000170405, Final residual = 7.13935e-09, No Iterations 1
DILUPBiCGStab:  Solving for k, Initial residual = 0.000181008, Final residual = 6.9632e-09, No Iterations 1
ExecutionTime = 0.01 s  ClockTime = 0 s

Courant Number mean: 0.00821682 max: 0.0336107
Time = 100.07

diagonal:  Solving for rho, Initial residual = 0, Final residual = 0, No Iterations 0
DILUPBiCGStab:  Solving for Ux, Initial residual = 0.00668672, Final residual = 1.54223e-07, No Iterations 1
DILUPBiCGStab:  Solving for Uy, Initial residual = 0.00455161, Final residual = 1.79733e-07, No Iterations 1
DILUPBiCGStab:  Solving for h, Initial residual = 0.000312849, Final residual = 9.23411e-09, No Iterations 1
DICPCG:  Solving for p_rgh, Initial residual = 0.0452098, Final residual = 0.000389937, No Iterations 20
diagonal:  Solving for rho, Initial residual = 0, Final residual = 0, No Iterations 0
time step continuity errors : sum local = 1.00929e-07, global = 7.30502e-10, cumulative = -4.10667e-07
DICPCG:  Solving for p_rgh, Initial residual = 0.000689126, Final residual = 6.53653e-09, No Iterations 34
diagonal:  Solving for rho, Initial residual = 0, Final residual = 0, No Iterations 0
time step continuity errors : sum local = 1.42215e-09, global = 1.42215e-09, cumulative = -4.09245e-07
DILUPBiCGStab:  Solving for epsilon, Initial residual = 0.000178285, Final residual = 8.06295e-09, No Iterations 1
DILUPBiCGStab:  Solving for k, Initial residual = 0.000185603, Final residual = 7.44472e-09, No Iterations 1
ExecutionTime = 0.01 s  ClockTime = 0 s

Courant Number mean: 0.00821238 max: 0.0333455
Time = 100.08

diagonal:  Solving for rho, Initial residual = 0, Final residual = 0, No Iterations 0
DILUPBiCGStab:  Solving for Ux, Initial residual = 0.00329469, Final residual = 8.98905e-08, No Iterations 1
DILUPBiCGStab:  Solving for Uy, Initial residual = 0.0031123, Final residual = 1.29854e-07, No Iterations 1
DILUPBiCGStab:  Solving for h, Initial residual = 0.000468421, Final residual = 1.34194e-08, No Iterations 1
DICPCG:  Solving for p_rgh, Initial residual = 0.0660801, Final residual = 0.000582122, No Iterations 16
diagonal:  Solving for rho, Initial residual = 0, Final residual = 0, No Iterations 0
time step continuity errors : sum local = 1.29835e-07, global = 4.41773e-09, cumulative = -4.04827e-07
DICPCG:  Solving for p_rgh, Initial residual = 0.001006, Final residual = 8.70756e-09, No Iterations 34
diagonal:  Solving for rho, Initial residual = 0, Final residual = 0, No Iterations 0
time step continuity errors : sum local = 1.70699e-09, global = 1.70699e-09, cumulative = -4.0312e-07
DILUPBiCGStab:  Solving for epsilon, Initial residual = 0.000180672, Final residual = 8.40228e-09, No Iterations 1
DILUPBiCGStab:  Solving for k, Initial residual = 0.000186798, Final residual = 7.609e-09, No Iterations 1
ExecutionTime = 0.02 s  ClockTime = 0 s

Courant Number mean: 0.00820946 max: 0.0332342
Time = 100.09

diagonal:  Solving for rho, Initial residual = 0, Final residual = 0, No Iterations 0
DILUPBiCGStab:  Solving for Ux, Initial residual = 0.000889636, Final residual = 2.77977e-08, No Iterations 1
DILUPBiCGStab:  Solving for Uy, Initial residual = 0.00130011, Final residual = 5.0254e-08, No Iterations 1
DILUPBiCGStab:  Solving for h, Initial residual = 0.000547779, Final residual = 1.58695e-08, No Iterations 1
DICPCG:  Solving for p_rgh, Initial residual = 0.0843728, Final residual = 0.000688899, No Iterations 20
diagonal:  Solving for rho, Initial residual = 0, Final residual = 0, No Iterations 0
time step continuity errors : sum local = 1.23359e-07, global = 3.24651e-10, cumulative = -4.02796e-07
DICPCG:  Solving for p_rgh, Initial residual = 0.00107858, Final residual = 5.39578e-09, No Iterations 35
diagonal:  Solving for rho, Initial residual = 0, Final residual = 0, No Iterations 0
time step continuity errors : sum local = 1.68686e-09, global = 1.68686e-09, cumulative = -4.01109e-07
DILUPBiCGStab:  Solving for epsilon, Initial residual = 0.000175363, Final residual = 8.03788e-09, No Iterations 1
DILUPBiCGStab:  Solving for k, Initial residual = 0.000183134, Final residual = 7.33627e-09, No Iterations 1
ExecutionTime = 0.02 s  ClockTime = 0 s

Courant Number mean: 0.00820818 max: 0.0332832
Time = 100.1

diagonal:  Solving for rho, Initial residual = 0, Final residual = 0, No Iterations 0
DILUPBiCGStab:  Solving for Ux, Initial residual = 0.00132957, Final residual = 3.26282e-08, No Iterations 1
DILUPBiCGStab:  Solving for Uy, Initial residual = 0.000862635, Final residual = 3.68046e-08, No Iterations 1
DILUPBiCGStab:  Solving for h, Initial residual = 0.000541071, Final residual = 1.57921e-08, No Iterations 1
DICPCG:  Solving for p_rgh, Initial residual = 0.0799572, Final residual = 0.000762515, No Iterations 20
diagonal:  Solving for rho, Initial residual = 0, Final residual = 0, No Iterations 0
time step continuity errors : sum local = 1.23692e-07, global = -1.30314e-10, cumulative = -4.01239e-07
DICPCG:  Solving for p_rgh, Initial residual = 0.000806899, Final residual = 9.10753e-09, No Iterations 33
diagonal:  Solving for rho, Initial residual = 0, Final residual = 0, No Iterations 0
time step continuity errors : sum local = 1.40216e-09, global = 1.40216e-09, cumulative = -3.99837e-07
DILUPBiCGStab:  Solving for epsilon, Initial residual = 0.000165043, Final residual = 7.18809e-09, No Iterations 1
DILUPBiCGStab:  Solving for k, Initial residual = 0.000176792, Final residual = 6.80455e-09, No Iterations 1
ExecutionTime = 0.02 s  ClockTime = 0 s

Courant Number mean: 0.00820827 max: 0.0334565
Time = 100.11

diagonal:  Solving for rho, Initial residual = 0, Final residual = 0, No Iterations 0
DILUPBiCGStab:  Solving for Ux, Initial residual = 0.00296227, Final residual = 7.3416e-08, No Iterations 1
DILUPBiCGStab:  Solving for Uy, Initial residual = 0.00219766, Final residual = 9.5538e-08, No Iterations 1
DILUPBiCGStab:  Solving for h, Initial residual = 0.000458356, Final residual = 1.35469e-08, No Iterations 1
DICPCG:  Solving for p_rgh, Initial residual = 0.0458938, Final residual = 0.000320499, No Iterations 16
diagonal:  Solving for rho, Initial residual = 0, Final residual = 0, No Iterations 0
time step continuity errors : sum local = 6.32626e-08, global = -3.23352e-10, cumulative = -4.0016e-07
DICPCG:  Solving for p_rgh, Initial residual = 0.000389546, Final residual = 8.49016e-09, No Iterations 32
diagonal:  Solving for rho, Initial residual = 0, Final residual = 0, No Iterations 0
time step continuity errors : sum local = 9.35825e-10, global = 9.35825e-10, cumulative = -3.99225e-07
DILUPBiCGStab:  Solving for epsilon, Initial residual = 0.000155978, Final residual = 6.32784e-09, No Iterations 1
DILUPBiCGStab:  Solving for k, Initial residual = 0.000170983, Final residual = 6.41821e-09, No Iterations 1
ExecutionTime = 0.02 s  ClockTime = 0 s

Courant Number mean: 0.00821115 max: 0.0337011
Time = 100.12

diagonal:  Solving for rho, Initial residual = 0, Final residual = 0, No Iterations 0
DILUPBiCGStab:  Solving for Ux, Initial residual = 0.0042274, Final residual = 1.00986e-07, No Iterations 1
DILUPBiCGStab:  Solving for Uy, Initial residual = 0.00306292, Final residual = 1.28167e-07, No Iterations 1
DILUPBiCGStab:  Solving for h, Initial residual = 0.000324576, Final residual = 1.00564e-08, No Iterations 1
DICPCG:  Solving for p_rgh, Initial residual = 0.0194787, Final residual = 0.00018939, No Iterations 21
diagonal:  Solving for rho, Initial residual = 0, Final residual = 0, No Iterations 0
time step continuity errors : sum local = 4.15232e-08, global = -1.7776e-10, cumulative = -3.99402e-07
DICPCG:  Solving for p_rgh, Initial residual = 0.000216217, Final residual = 6.42921e-09, No Iterations 31
diagonal:  Solving for rho, Initial residual = 0, Final residual = 0, No Iterations 0
time step continuity errors : sum local = 3.85278e-10, global = 3.85278e-10, cumulative = -3.99017e-07
DILUPBiCGStab:  Solving for epsilon, Initial residual = 0.000150241, Final residual = 5.66764e-09, No Iterations 1
DILUPBiCGStab:  Solving for k, Initial residual = 0.000166738, Final residual = 6.14049e-09, No Iterations 1
ExecutionTime = 0.03 s  ClockTime = 0 s

Courant Number mean: 0.00821612 max: 0.0339656
Time = 100.13

diagonal:  Solving for rho, Initial residual = 0, Final residual = 0, No Iterations 0
DILUPBiCGStab:  Solving for Ux, Initial residual = 0.00479032, Final residual = 1.10151e-07, No Iterations 1
DILUPBiCGStab:  Solving for Uy, Initial residual = 0.00341356, Final residual = 1.35786e-07, No Iterations 1
DILUPBiCGStab:  Solving for h, Initial residual = 0.000188947, Final residual = 6.66733e-09, No Iterations 1
DICPCG:  Solving for p_rgh, Initial residual = 0.00969237, Final residual = 5.30701e-05, No Iterations 22
diagonal:  Solving for rho, Initial residual = 0, Final residual = 0, No Iterations 0
time step continuity errors : sum local = 1.20406e-08, global = -2.29317e-10, cumulative = -3.99246e-07
DICPCG:  Solving for p_rgh, Initial residual = 9.89295e-05, Final residual = 5.92313e-09, No Iterations 31
diagonal:  Solving for rho, Initial residual = 0, Final residual = 0, No Iterations 0
time step continuity errors : sum local = 1.54949e-10, global = -1.54387e-10, cumulative = -3.99401e-07
DILUPBiCGStab:  Solving for epsilon, Initial residual = 0.000145767, Final residual = 5.17745e-09, No Iterations 1
DILUPBiCGStab:  Solving for k, Initial residual = 0.000164704, Final residual = 5.95898e-09, No Iterations 1
ExecutionTime = 0.03 s  ClockTime = 0 s

Courant Number mean: 0.00822063 max: 0.034207
Time = 100.14

diagonal:  Solving for rho, Initial residual = 0, Final residual = 0, No Iterations 0
DILUPBiCGStab:  Solving for Ux, Initial residual = 0.00448764, Final residual = 1.00647e-07, No Iterations 1
DILUPBiCGStab:  Solving for Uy, Initial residual = 0.00320287, Final residual = 1.23888e-07, No Iterations 1
DILUPBiCGStab:  Solving for h, Initial residual = 0.000283584, Final residual = 7.85688e-09, No Iterations 1
DICPCG:  Solving for p_rgh, Initial residual = 0.0240791, Final residual = 0.000162799, No Iterations 20
diagonal:  Solving for rho, Initial residual = 0, Final residual = 0, No Iterations 0
time step continuity errors : sum local = 3.5708e-08, global = 3.76627e-11, cumulative = -3.99363e-07
DICPCG:  Solving for p_rgh, Initial residual = 0.000289036, Final residual = 8.15168e-09, No Iterations 32
diagonal:  Solving for rho, Initial residual = 0, Final residual = 0, No Iterations 0
time step continuity errors : sum local = 6.0354e-10, global = -6.0354e-10, cumulative = -3.99967e-07
DILUPBiCGStab:  Solving for epsilon, Initial residual = 0.000143806, Final residual = 4.92377e-09, No Iterations 1
DILUPBiCGStab:  Solving for k, Initial residual = 0.000163406, Final residual = 5.83277e-09, No Iterations 1
ExecutionTime = 0.03 s  ClockTime = 0 s

Courant Number mean: 0.00822429 max: 0.0343918
Time = 100.15

diagonal:  Solving for rho, Initial residual = 0, Final residual = 0, No Iterations 0
DILUPBiCGStab:  Solving for Ux, Initial residual = 0.00344943, Final residual = 7.65655e-08, No Iterations 1
DILUPBiCGStab:  Solving for Uy, Initial residual = 0.00253324, Final residual = 9.64704e-08, No Iterations 1
DILUPBiCGStab:  Solving for h, Initial residual = 0.000404736, Final residual = 9.93063e-09, No Iterations 1
DICPCG:  Solving for p_rgh, Initial residual = 0.0376571, Final residual = 0.000281424, No Iterations 20
diagonal:  Solving for rho, Initial residual = 0, Final residual = 0, No Iterations 0
time step continuity errors : sum local = 5.71265e-08, global = -8.91319e-10, cumulative = -4.00858e-07
DICPCG:  Solving for p_rgh, Initial residual = 0.000496701, Final residual = 4.95324e-09, No Iterations 34
diagonal:  Solving for rho, Initial residual = 0, Final residual = 0, No Iterations 0
time step continuity errors : sum local = 9.05121e-10, global = -9.05121e-10, cumulative = -4.01763e-07
DILUPBiCGStab:  Solving for epsilon, Initial residual = 0.000144141, Final residual = 4.88353e-09, No Iterations 1
DILUPBiCGStab:  Solving for k, Initial residual = 0.000163359, Final residual = 5.82222e-09, No Iterations 1
ExecutionTime = 0.03 s  ClockTime = 0 s

Courant Number mean: 0.0082268 max: 0.0344972
Time = 100.16

diagonal:  Solving for rho, Initial residual = 0, Final residual = 0, No Iterations 0
DILUPBiCGStab:  Solving for Ux, Initial residual = 0.00200052, Final residual = 4.48839e-08, No Iterations 1
DILUPBiCGStab:  Solving for Uy, Initial residual = 0.00155914, Final residual = 5.88507e-08, No Iterations 1
DILUPBiCGStab:  Solving for h, Initial residual = 0.000486289, Final residual = 1.13296e-08, No Iterations 1
DICPCG:  Solving for p_rgh, Initial residual = 0.0500247, Final residual = 0.000407026, No Iterations 20
diagonal:  Solving for rho, Initial residual = 0, Final residual = 0, No Iterations 0
time step continuity errors : sum local = 7.29416e-08, global = -1.09463e-09, cumulative = -4.02858e-07
DICPCG:  Solving for p_rgh, Initial residual = 0.000694802, Final residual = 6.25497e-09, No Iterations 34
diagonal:  Solving for rho, Initial residual = 0, Final residual = 0, No Iterations 0
time step continuity errors : sum local = 1.03081e-09, global = -1.03081e-09, cumulative = -4.03889e-07
DILUPBiCGStab:  Solving for epsilon, Initial residual = 0.00014371, Final residual = 4.86715e-09, No Iterations 1
DILUPBiCGStab:  Solving for k, Initial residual = 0.000162672, Final residual = 5.80229e-09, No Iterations 1
ExecutionTime = 0.04 s  ClockTime = 0 s

Courant Number mean: 0.00822701 max: 0.0345144
Time = 100.17

diagonal:  Solving for rho, Initial residual = 0, Final residual = 0, No Iterations 0
DILUPBiCGStab:  Solving for Ux, Initial residual = 0.000474041, Final residual = 1.25975e-08, No Iterations 1
DILUPBiCGStab:  Solving for Uy, Initial residual = 0.000467306, Final residual = 1.61603e-08, No Iterations 1
DILUPBiCGStab:  Solving for h, Initial residual = 0.000520174, Final residual = 1.19568e-08, No Iterations 1
DICPCG:  Solving for p_rgh, Initial residual = 0.0576074, Final residual = 0.000517115, No Iterations 16
diagonal:  Solving for rho, Initial residual = 0, Final residual = 0, No Iterations 0
time step continuity errors : sum local = 7.8773e-08, global = -3.23089e-09, cumulative = -4.07119e-07
DICPCG:  Solving for p_rgh, Initial residual = 0.000648471, Final residual = 8.35793e-09, No Iterations 33
diagonal:  Solving for rho, Initial residual = 0, Final residual = 0, No Iterations 0
time step continuity errors : sum local = 9.8256e-10, global = -9.8256e-10, cumulative = -4.08102e-07
DILUPBiCGStab:  Solving for epsilon, Initial residual = 0.00014183, Final residual = 4.83249e-09, No Iterations 1
DILUPBiCGStab:  Solving for k, Initial residual = 0.000160974, Final residual = 5.73907e-09, No Iterations 1
ExecutionTime = 0.04 s  ClockTime = 0 s

Courant Number mean: 0.00822487 max: 0.0344494
Time = 100.18

diagonal:  Solving for rho, Initial residual = 0, Final residual = 0, No Iterations 0
DILUPBiCGStab:  Solving for Ux, Initial residual = 0.00107265, Final residual = 2.47515e-08, No Iterations 1
DILUPBiCGStab:  Solving for Uy, Initial residual = 0.00069419, Final residual = 2.44317e-08, No Iterations 1
DILUPBiCGStab:  Solving for h, Initial residual = 0.000506789, Final residual = 1.18134e-08, No Iterations 1
DICPCG:  Solving for p_rgh, Initial residual = 0.0453882, Final residual = 0.000355416, No Iterations 16
diagonal:  Solving for rho, Initial residual = 0, Final residual = 0, No Iterations 0
time step continuity errors : sum local = 5.6995e-08, global = 2.23782e-09, cumulative = -4.05864e-07
DICPCG:  Solving for p_rgh, Initial residual = 0.000422099, Final residual = 9.35986e-09, No Iterations 32
diagonal:  Solving for rho, Initial residual = 0, Final residual = 0, No Iterations 0
time step continuity errors : sum local = 7.89393e-10, global = -7.89393e-10, cumulative = -4.06654e-07
DILUPBiCGStab:  Solving for epsilon, Initial residual = 0.00014053, Final residual = 4.8821e-09, No Iterations 1
DILUPBiCGStab:  Solving for k, Initial residual = 0.000159615, Final residual = 5.71188e-09, No Iterations 1
ExecutionTime = 0.04 s  ClockTime = 0 s

Courant Number mean: 0.00822132 max: 0.034321
Time = 100.19

diagonal:  Solving for rho, Initial residual = 0, Final residual = 0, No Iterations 0
DILUPBiCGStab:  Solving for Ux, Initial residual = 0.00215224, Final residual = 4.87009e-08, No Iterations 1
DILUPBiCGStab:  Solving for Uy, Initial residual = 0.00144238, Final residual = 5.35773e-08, No Iterations 1
DILUPBiCGStab:  Solving for h, Initial residual = 0.000453949, Final residual = 1.10126e-08, No Iterations 1
DICPCG:  Solving for p_rgh, Initial residual = 0.0270863, Final residual = 0.000197494, No Iterations 21
diagonal:  Solving for rho, Initial residual = 0, Final residual = 0, No Iterations 0
time step continuity errors : sum local = 3.54979e-08, global = 3.28506e-10, cumulative = -4.06325e-07
DICPCG:  Solving for p_rgh, Initial residual = 0.00023767, Final residual = 6.81382e-09, No Iterations 32
diagonal:  Solving for rho, Initial residual = 0, Final residual = 0, No Iterations 0
time step continuity errors : sum local = 4.98716e-10, global = -4.98716e-10, cumulative = -4.06824e-07
DILUPBiCGStab:  Solving for epsilon, Initial residual = 0.00014052, Final residual = 5.05598e-09, No Iterations 1
DILUPBiCGStab:  Solving for k, Initial residual = 0.000158951, Final residual = 5.74384e-09, No Iterations 1
ExecutionTime = 0.04 s  ClockTime = 0 s

Courant Number mean: 0.00821735 max: 0.0341554
Time = 100.2

diagonal:  Solving for rho, Initial residual = 0, Final residual = 0, No Iterations 0
DILUPBiCGStab:  Solving for Ux, Initial residual = 0.0027908, Final residual = 6.34641e-08, No Iterations 1
DILUPBiCGStab:  Solving for Uy, Initial residual = 0.00194249, Final residual = 7.30748e-08, No Iterations 1
DILUPBiCGStab:  Solving for h, Initial residual = 0.000374804, Final residual = 9.75463e-09, No Iterations 1
DICPCG:  Solving for p_rgh, Initial residual = 0.0105846, Final residual = 7.10108e-05, No Iterations 22
diagonal:  Solving for rho, Initial residual = 0, Final residual = 0, No Iterations 0
time step continuity errors : sum local = 1.35325e-08, global = 1.01166e-11, cumulative = -4.06814e-07
DICPCG:  Solving for p_rgh, Initial residual = 9.28344e-05, Final residual = 7.22784e-09, No Iterations 30
diagonal:  Solving for rho, Initial residual = 0, Final residual = 0, No Iterations 0
time step continuity errors : sum local = 1.6771e-10, global = -1.6771e-10, cumulative = -4.06981e-07
DILUPBiCGStab:  Solving for epsilon, Initial residual = 0.000141031, Final residual = 5.28734e-09, No Iterations 1
DILUPBiCGStab:  Solving for k, Initial residual = 0.000158555, Final residual = 5.80142e-09, No Iterations 1
ExecutionTime = 0.05 s  ClockTime = 0 s

Courant Number mean: 0.00821333 max: 0.0339816
Time = 100.21

diagonal:  Solving for rho, Initial residual = 0, Final residual = 0, No Iterations 0
DILUPBiCGStab:  Solving for Ux, Initial residual = 0.00294152, Final residual = 6.75443e-08, No Iterations 1
DILUPBiCGStab:  Solving for Uy, Initial residual = 0.00209008, Final residual = 7.95775e-08, No Iterations 1
DILUPBiCGStab:  Solving for h, Initial residual = 0.000284883, Final residual = 8.28145e-09, No Iterations 1
DICPCG:  Solving for p_rgh, Initial residual = 0.00903713, Final residual = 7.63999e-05, No Iterations 21
diagonal:  Solving for rho, Initial residual = 0, Final residual = 0, No Iterations 0
time step continuity errors : sum local = 1.49524e-08, global = -1.52912e-10, cumulative = -4.07134e-07
DICPCG:  Solving for p_rgh, Initial residual = 0.0001185, Final residual = 4.79646e-09, No Iterations 31
diagonal:  Solving for rho, Initial residual = 0, Final residual = 0, No Iterations 0
time step continuity errors : sum local = 1.481e-10, global = 1.47839e-10, cumulative = -4.06986e-07
DILUPBiCGStab:  Solving for epsilon, Initial residual = 0.000141647, Final residual = 5.52554e-09, No Iterations 1
DILUPBiCGStab:  Solving for k, Initial residual = 0.000158598, Final residual = 5.86668e-09, No Iterations 1
ExecutionTime = 0.05 s  ClockTime = 0 s

Courant Number mean: 0.00820968 max: 0.033826
Time = 100.22

diagonal:  Solving for rho, Initial residual = 0, Final residual = 0, No Iterations 0
DILUPBiCGStab:  Solving for Ux, Initial residual = 0.00263487, Final residual = 6.12276e-08, No Iterations 1
DILUPBiCGStab:  Solving for Uy, Initial residual = 0.00190734, Final residual = 7.30814e-08, No Iterations 1
DILUPBiCGStab:  Solving for h, Initial residual = 0.000206596, Final residual = 7.1714e-09, No Iterations 1
DICPCG:  Solving for p_rgh, Initial residual = 0.0185835, Final residual = 0.000125268, No Iterations 20
diagonal:  Solving for rho, Initial residual = 0, Final residual = 0, No Iterations 0
time step continuity errors : sum local = 2.36785e-08, global = -1.98389e-10, cumulative = -4.07185e-07
DICPCG:  Solving for p_rgh, Initial residual = 0.000219693, Final residual = 6.53557e-09, No Iterations 32
diagonal:  Solving for rho, Initial residual = 0, Final residual = 0, No Iterations 0
time step continuity errors : sum local = 4.01471e-10, global = 4.01471e-10, cumulative = -4.06783e-07
DILUPBiCGStab:  Solving for epsilon, Initial residual = 0.000141858, Final residual = 5.71043e-09, No Iterations 1
DILUPBiCGStab:  Solving for k, Initial residual = 0.000158798, Final residual = 5.91825e-09, No Iterations 1
ExecutionTime = 0.05 s  ClockTime = 0 s

Courant Number mean: 0.00820682 max: 0.0337088
Time = 100.23

diagonal:  Solving for rho, Initial residual = 0, Final residual = 0, No Iterations 0
DILUPBiCGStab:  Solving for Ux, Initial residual = 0.00196981, Final residual = 4.65229e-08, No Iterations 1
DILUPBiCGStab:  Solving for Uy, Initial residual = 0.00146336, Final residual = 5.56626e-08, No Iterations 1
DILUPBiCGStab:  Solving for h, Initial residual = 0.000189361, Final residual = 7.24142e-09, No Iterations 1
DICPCG:  Solving for p_rgh, Initial residual = 0.0269481, Final residual = 0.000177977, No Iterations 20
diagonal:  Solving for rho, Initial residual = 0, Final residual = 0, No Iterations 0
time step continuity errors : sum local = 3.17985e-08, global = 2.69654e-10, cumulative = -4.06514e-07
DICPCG:  Solving for p_rgh, Initial residual = 0.00031913, Final residual = 7.52265e-09, No Iterations 33
diagonal:  Solving for rho, Initial residual = 0, Final residual = 0, No Iterations 0
time step continuity errors : sum local = 5.61981e-10, global = 5.61981e-10, cumulative = -4.05952e-07
DILUPBiCGStab:  Solving for epsilon, Initial residual = 0.000141453, Final residual = 5.80432e-09, No Iterations 1
DILUPBiCGStab:  Solving for k, Initial residual = 0.000158554, Final residual = 5.93259e-09, No Iterations 1
ExecutionTime = 0.05 s  ClockTime = 0 s

Courant Number mean: 0.00820501 max: 0.0336422
Time = 100.24

diagonal:  Solving for rho, Initial residual = 0, Final residual = 0, No Iterations 0
DILUPBiCGStab:  Solving for Ux, Initial residual = 0.00109198, Final residual = 2.66857e-08, No Iterations 1
DILUPBiCGStab:  Solving for Uy, Initial residual = 0.000858955, Final residual = 3.09879e-08, No Iterations 1
DILUPBiCGStab:  Solving for h, Initial residual = 0.000218885, Final residual = 7.9594e-09, No Iterations 1
DICPCG:  Solving for p_rgh, Initial residual = 0.0330998, Final residual = 0.000238117, No Iterations 20
diagonal:  Solving for rho, Initial residual = 0, Final residual = 0, No Iterations 0
time step continuity errors : sum local = 3.91286e-08, global = 3.97409e-10, cumulative = -4.05554e-07
DICPCG:  Solving for p_rgh, Initial residual = 0.00039996, Final residual = 9.49757e-09, No Iterations 32
diagonal:  Solving for rho, Initial residual = 0, Final residual = 0, No Iterations 0
time step continuity errors : sum local = 6.16231e-10, global = 6.16231e-10, cumulative = -4.04938e-07
DILUPBiCGStab:  Solving for epsilon, Initial residual = 0.000140377, Final residual = 5.79356e-09, No Iterations 1
DILUPBiCGStab:  Solving for k, Initial residual = 0.000157601, Final residual = 5.89959e-09, No Iterations 1
ExecutionTime = 0.06 s  ClockTime = 0 s

Courant Number mean: 0.00820432 max: 0.033629
Time = 100.25

diagonal:  Solving for rho, Initial residual = 0, Final residual = 0, No Iterations 0
DILUPBiCGStab:  Solving for Ux, Initial residual = 0.000183756, Final residual = 5.04451e-09, No Iterations 1
DILUPBiCGStab:  Solving for Uy, Initial residual = 0.000229538, Final residual = 4.54816e-09, No Iterations 1
DILUPBiCGStab:  Solving for h, Initial residual = 0.000231909, Final residual = 8.23623e-09, No Iterations 1
DICPCG:  Solving for p_rgh, Initial residual = 0.0347649, Final residual = 0.000326724, No Iterations 16
diagonal:  Solving for rho, Initial residual = 0, Final residual = 0, No Iterations 0
time step continuity errors : sum local = 4.86894e-08, global = 1.77239e-09, cumulative = -4.03166e-07
DICPCG:  Solving for p_rgh, Initial residual = 0.000408629, Final residual = 5.84345e-09, No Iterations 33
diagonal:  Solving for rho, Initial residual = 0, Final residual = 0, No Iterations 0
time step continuity errors : sum local = 5.68921e-10, global = 5.68921e-10, cumulative = -4.02597e-07
DILUPBiCGStab:  Solving for epsilon, Initial residual = 0.000138722, Final residual = 5.68955e-09, No Iterations 1
DILUPBiCGStab:  Solving for k, Initial residual = 0.000156023, Final residual = 5.82514e-09, No Iterations 1
ExecutionTime = 0.06 s  ClockTime = 0 s

Courant Number mean: 0.00820465 max: 0.0336638
Time = 100.26

diagonal:  Solving for rho, Initial residual = 0, Final residual = 0, No Iterations 0
DILUPBiCGStab:  Solving for Ux, Initial residual = 0.000760393, Final residual = 1.87049e-08, No Iterations 1
DILUPBiCGStab:  Solving for Uy, Initial residual = 0.000547357, Final residual = 2.21584e-08, No Iterations 1
DILUPBiCGStab:  Solving for h, Initial residual = 0.000218823, Final residual = 7.91036e-09, No Iterations 1
DICPCG:  Solving for p_rgh, Initial residual = 0.0275492, Final residual = 0.000182433, No Iterations 16
diagonal:  Solving for rho, Initial residual = 0, Final residual = 0, No Iterations 0
time step continuity errors : sum local = 2.75685e-08, global = -9.25989e-10, cumulative = -4.03523e-07
DICPCG:  Solving for p_rgh, Initial residual = 0.00023661, Final residual = 6.38306e-09, No Iterations 32
diagonal:  Solving for rho, Initial residual = 0, Final residual = 0, No Iterations 0
time step continuity errors : sum local = 4.39968e-10, global = 4.39968e-10, cumulative = -4.03083e-07
DILUPBiCGStab:  Solving for epsilon, Initial residual = 0.000136686, Final residual = 5.52239e-09, No Iterations 1
DILUPBiCGStab:  Solving for k, Initial residual = 0.000154146, Final residual = 5.72668e-09, No Iterations 1
ExecutionTime = 0.06 s  ClockTime = 0 s

Courant Number mean: 0.00820573 max: 0.0337342
Time = 100.27

diagonal:  Solving for rho, Initial residual = 0, Final residual = 0, No Iterations 0
DILUPBiCGStab:  Solving for Ux, Initial residual = 0.00135063, Final residual = 3.17197e-08, No Iterations 1
DILUPBiCGStab:  Solving for Uy, Initial residual = 0.000950098, Final residual = 3.85179e-08, No Iterations 1
DILUPBiCGStab:  Solving for h, Initial residual = 0.000191423, Final residual = 7.22492e-09, No Iterations 1
DICPCG:  Solving for p_rgh, Initial residual = 0.0163024, Final residual = 0.0001535, No Iterations 20
diagonal:  Solving for rho, Initial residual = 0, Final residual = 0, No Iterations 0
time step continuity errors : sum local = 2.46456e-08, global = -3.8333e-10, cumulative = -4.03466e-07
DICPCG:  Solving for p_rgh, Initial residual = 0.000187075, Final residual = 8.64328e-09, No Iterations 31
diagonal:  Solving for rho, Initial residual = 0, Final residual = 0, No Iterations 0
time step continuity errors : sum local = 2.58987e-10, global = 2.58987e-10, cumulative = -4.03207e-07
DILUPBiCGStab:  Solving for epsilon, Initial residual = 0.000134521, Final residual = 5.3287e-09, No Iterations 1
DILUPBiCGStab:  Solving for k, Initial residual = 0.000152315, Final residual = 5.6217e-09, No Iterations 1
ExecutionTime = 0.06 s  ClockTime = 0 s

Courant Number mean: 0.00820724 max: 0.0338241
Time = 100.28

diagonal:  Solving for rho, Initial residual = 0, Final residual = 0, No Iterations 0
DILUPBiCGStab:  Solving for Ux, Initial residual = 0.00166754, Final residual = 3.86535e-08, No Iterations 1
DILUPBiCGStab:  Solving for Uy, Initial residual = 0.00117221, Final residual = 4.73215e-08, No Iterations 1
DILUPBiCGStab:  Solving for h, Initial residual = 0.000187009, Final residual = 6.9591e-09, No Iterations 1
DICPCG:  Solving for p_rgh, Initial residual = 0.00543555, Final residual = 3.37992e-05, No Iterations 22
diagonal:  Solving for rho, Initial residual = 0, Final residual = 0, No Iterations 0
time step continuity errors : sum local = 5.76695e-09, global = -2.08019e-10, cumulative = -4.03415e-07
DICPCG:  Solving for p_rgh, Initial residual = 4.97783e-05, Final residual = 6.70014e-09, No Iterations 29
diagonal:  Solving for rho, Initial residual = 0, Final residual = 0, No Iterations 0
time step continuity errors : sum local = 6.05155e-11, global = 6.05155e-11, cumulative = -4.03355e-07
DILUPBiCGStab:  Solving for epsilon, Initial residual = 0.000132433, Final residual = 5.14326e-09, No Iterations 1
DILUPBiCGStab:  Solving for k, Initial residual = 0.000150811, Final residual = 5.53166e-09, No Iterations 1
ExecutionTime = 0.06 s  ClockTime = 0 s

Courant Number mean: 0.00820882 max: 0.0339165
Time = 100.29

diagonal:  Solving for rho, Initial residual = 0, Final residual = 0, No Iterations 0
DILUPBiCGStab:  Solving for Ux, Initial residual = 0.00169522, Final residual = 3.90119e-08, No Iterations 1
DILUPBiCGStab:  Solving for Uy, Initial residual = 0.00122146, Final residual = 4.86452e-08, No Iterations 1
DILUPBiCGStab:  Solving for h, Initial residual = 0.000224154, Final residual = 7.26571e-09, No Iterations 1
DICPCG:  Solving for p_rgh, Initial residual = 0.00779564, Final residual = 7.54604e-05, No Iterations 18
diagonal:  Solving for rho, Initial residual = 0, Final residual = 0, No Iterations 0
time step continuity errors : sum local = 1.2734e-08, global = -1.85059e-10, cumulative = -4.0354e-07
DICPCG:  Solving for p_rgh, Initial residual = 0.000107463, Final residual = 6.83971e-09, No Iterations 31
diagonal:  Solving for rho, Initial residual = 0, Final residual = 0, No Iterations 0
time step continuity errors : sum local = 1.22878e-10, global = -1.22813e-10, cumulative = -4.03663e-07
DILUPBiCGStab:  Solving for epsilon, Initial residual = 0.000130708, Final residual = 4.99335e-09, No Iterations 1
DILUPBiCGStab:  Solving for k, Initial residual = 0.000149532, Final residual = 5.45498e-09, No Iterations 1
ExecutionTime = 0.07 s  ClockTime = 0 s

Courant Number mean: 0.00821014 max: 0.0339958
Time = 100.3

diagonal:  Solving for rho, Initial residual = 0, Final residual = 0, No Iterations 0
DILUPBiCGStab:  Solving for Ux, Initial residual = 0.00146395, Final residual = 3.3631e-08, No Iterations 1
DILUPBiCGStab:  Solving for Uy, Initial residual = 0.00107833, Final residual = 4.2573e-08, No Iterations 1
DILUPBiCGStab:  Solving for h, Initial residual = 0.000271004, Final residual = 7.97698e-09, No Iterations 1
DICPCG:  Solving for p_rgh, Initial residual = 0.0138845, Final residual = 9.89209e-05, No Iterations 20
diagonal:  Solving for rho, Initial residual = 0, Final residual = 0, No Iterations 0
time step continuity errors : sum local = 1.61963e-08, global = -6.01241e-11, cumulative = -4.03723e-07
DICPCG:  Solving for p_rgh, Initial residual = 0.000163295, Final residual = 8.75178e-09, No Iterations 30
diagonal:  Solving for rho, Initial residual = 0, Final residual = 0, No Iterations 0
time step continuity errors : sum local = 2.64597e-10, global = -2.64597e-10, cumulative = -4.03987e-07
DILUPBiCGStab:  Solving for epsilon, Initial residual = 0.000129383, Final residual = 4.8915e-09, No Iterations 1
DILUPBiCGStab:  Solving for k, Initial residual = 0.000148471, Final residual = 5.39889e-09, No Iterations 1
ExecutionTime = 0.07 s  ClockTime = 0 s

Courant Number mean: 0.00821098 max: 0.0340508
Time = 100.31

diagonal:  Solving for rho, Initial residual = 0, Final residual = 0, No Iterations 0
DILUPBiCGStab:  Solving for Ux, Initial residual = 0.00104296, Final residual = 2.41216e-08, No Iterations 1
DILUPBiCGStab:  Solving for Uy, Initial residual = 0.000788942, Final residual = 3.09621e-08, No Iterations 1
DILUPBiCGStab:  Solving for h, Initial residual = 0.000309073, Final residual = 8.63042e-09, No Iterations 1
DICPCG:  Solving for p_rgh, Initial residual = 0.019294, Final residual = 0.000157196, No Iterations 20
diagonal:  Solving for rho, Initial residual = 0, Final residual = 0, No Iterations 0
time step continuity errors : sum local = 2.4618e-08, global = -5.51071e-10, cumulative = -4.04538e-07
DICPCG:  Solving for p_rgh, Initial residual = 0.000240412, Final residual = 7.19551e-09, No Iterations 31
diagonal:  Solving for rho, Initial residual = 0, Final residual = 0, No Iterations 0
time step continuity errors : sum local = 3.48205e-10, global = -3.48205e-10, cumulative = -4.04887e-07
DILUPBiCGStab:  Solving for epsilon, Initial residual = 0.000128291, Final residual = 4.83113e-09, No Iterations 1
DILUPBiCGStab:  Solving for k, Initial residual = 0.000147513, Final residual = 5.35771e-09, No Iterations 1
ExecutionTime = 0.07 s  ClockTime = 0 s

Courant Number mean: 0.00821119 max: 0.0340752
Time = 100.32

diagonal:  Solving for rho, Initial residual = 0, Final residual = 0, No Iterations 0
DILUPBiCGStab:  Solving for Ux, Initial residual = 0.000519923, Final residual = 1.26878e-08, No Iterations 1
DILUPBiCGStab:  Solving for Uy, Initial residual = 0.000417029, Final residual = 1.60263e-08, No Iterations 1
DILUPBiCGStab:  Solving for h, Initial residual = 0.000331673, Final residual = 9.04594e-09, No Iterations 1
DICPCG:  Solving for p_rgh, Initial residual = 0.0222237, Final residual = 0.000191077, No Iterations 20
diagonal:  Solving for rho, Initial residual = 0, Final residual = 0, No Iterations 0
time step continuity errors : sum local = 2.81509e-08, global = -5.82406e-10, cumulative = -4.05469e-07
DICPCG:  Solving for p_rgh, Initial residual = 0.000266247, Final residual = 6.1141e-09, No Iterations 32
diagonal:  Solving for rho, Initial residual = 0, Final residual = 0, No Iterations 0
time step continuity errors : sum local = 3.67959e-10, global = -3.67959e-10, cumulative = -4.05837e-07
DILUPBiCGStab:  Solving for epsilon, Initial residual = 0.000127396, Final residual = 4.80863e-09, No Iterations 1
DILUPBiCGStab:  Solving for k, Initial residual = 0.000146646, Final residual = 5.32944e-09, No Iterations 1
ExecutionTime = 0.07 s  ClockTime = 0 s

Courant Number mean: 0.00821075 max: 0.0340684
Time = 100.33

diagonal:  Solving for rho, Initial residual = 0, Final residual = 0, No Iterations 0
DILUPBiCGStab:  Solving for Ux, Initial residual = 0.000113372, Final residual = 3.12603e-09, No Iterations 1
DILUPBiCGStab:  Solving for Uy, Initial residual = 0.000153056, Final residual = 3.27163e-09, No Iterations 1
DILUPBiCGStab:  Solving for h, Initial residual = 0.000336884, Final residual = 9.17345e-09, No Iterations 1
DICPCG:  Solving for p_rgh, Initial residual = 0.0210852, Final residual = 0.000166125, No Iterations 16
diagonal:  Solving for rho, Initial residual = 0, Final residual = 0, No Iterations 0
time step continuity errors : sum local = 2.37113e-08, global = -8.81323e-10, cumulative = -4.06718e-07
DICPCG:  Solving for p_rgh, Initial residual = 0.000211118, Final residual = 5.32794e-09, No Iterations 32
diagonal:  Solving for rho, Initial residual = 0, Final residual = 0, No Iterations 0
time step continuity errors : sum local = 3.28737e-10, global = -3.28737e-10, cumulative = -4.07047e-07
DILUPBiCGStab:  Solving for epsilon, Initial residual = 0.000126661, Final residual = 4.81856e-09, No Iterations 1
DILUPBiCGStab:  Solving for k, Initial residual = 0.000145854, Final residual = 5.31175e-09, No Iterations 1
ExecutionTime = 0.08 s  ClockTime = 0 s

Courant Number mean: 0.00820974 max: 0.0340345
Time = 100.34

diagonal:  Solving for rho, Initial residual = 0, Final residual = 0, No Iterations 0
DILUPBiCGStab:  Solving for Ux, Initial residual = 0.000566224, Final residual = 1.36913e-08, No Iterations 1
DILUPBiCGStab:  Solving for Uy, Initial residual = 0.000397564, Final residual = 1.44222e-08, No Iterations 1
DILUPBiCGStab:  Solving for h, Initial residual = 0.000325993, Final residual = 9.03537e-09, No Iterations 1
DICPCG:  Solving for p_rgh, Initial residual = 0.0154608, Final residual = 0.000133424, No Iterations 16
diagonal:  Solving for rho, Initial residual = 0, Final residual = 0, No Iterations 0
time step continuity errors : sum local = 2.00631e-08, global = 6.90819e-10, cumulative = -4.06356e-07
DICPCG:  Solving for p_rgh, Initial residual = 0.000159832, Final residual = 7.36896e-09, No Iterations 31
diagonal:  Solving for rho, Initial residual = 0, Final residual = 0, No Iterations 0
time step continuity errors : sum local = 2.43893e-10, global = -2.43893e-10, cumulative = -4.066e-07
DILUPBiCGStab:  Solving for epsilon, Initial residual = 0.000126029, Final residual = 4.85266e-09, No Iterations 1
DILUPBiCGStab:  Solving for k, Initial residual = 0.000145119, Final residual = 5.30172e-09, No Iterations 1
ExecutionTime = 0.08 s  ClockTime = 0 s

Courant Number mean: 0.00820833 max: 0.0339815
Time = 100.35

diagonal:  Solving for rho, Initial residual = 0, Final residual = 0, No Iterations 0
DILUPBiCGStab:  Solving for Ux, Initial residual = 0.000895845, Final residual = 2.10624e-08, No Iterations 1
DILUPBiCGStab:  Solving for Uy, Initial residual = 0.000629279, Final residual = 2.37047e-08, No Iterations 1
DILUPBiCGStab:  Solving for h, Initial residual = 0.000302659, Final residual = 8.69336e-09, No Iterations 1
DICPCG:  Solving for p_rgh, Initial residual = 0.00891472, Final residual = 7.55458e-05, No Iterations 21
diagonal:  Solving for rho, Initial residual = 0, Final residual = 0, No Iterations 0
time step continuity errors : sum local = 1.18061e-08, global = 4.45702e-12, cumulative = -4.06596e-07
DICPCG:  Solving for p_rgh, Initial residual = 8.7508e-05, Final residual = 8.10699e-09, No Iterations 30
diagonal:  Solving for rho, Initial residual = 0, Final residual = 0, No Iterations 0
time step continuity errors : sum local = 1.32001e-10, global = -1.32001e-10, cumulative = -4.06728e-07
DILUPBiCGStab:  Solving for epsilon, Initial residual = 0.000125552, Final residual = 4.90517e-09, No Iterations 1
DILUPBiCGStab:  Solving for k, Initial residual = 0.000144501, Final residual = 5.2984e-09, No Iterations 1
ExecutionTime = 0.08 s  ClockTime = 0 s

Courant Number mean: 0.00820673 max: 0.0339193
Time = 100.36

diagonal:  Solving for rho, Initial residual = 0, Final residual = 0, No Iterations 0
DILUPBiCGStab:  Solving for Ux, Initial residual = 0.00105769, Final residual = 2.47682e-08, No Iterations 1
DILUPBiCGStab:  Solving for Uy, Initial residual = 0.00075888, Final residual = 2.8642e-08, No Iterations 1
DILUPBiCGStab:  Solving for h, Initial residual = 0.000271986, Final residual = 8.23101e-09, No Iterations 1
DICPCG:  Solving for p_rgh, Initial residual = 0.00243127, Final residual = 2.42021e-05, No Iterations 22
diagonal:  Solving for rho, Initial residual = 0, Final residual = 0, No Iterations 0
time step continuity errors : sum local = 3.96245e-09, global = -1.08248e-10, cumulative = -4.06836e-07
DICPCG:  Solving for p_rgh, Initial residual = 3.1467e-05, Final residual = 8.92505e-09, No Iterations 28
diagonal:  Solving for rho, Initial residual = 0, Final residual = 0, No Iterations 0
time step continuity errors : sum local = 1.37635e-11, global = -1.37201e-11, cumulative = -4.0685e-07
DILUPBiCGStab:  Solving for epsilon, Initial residual = 0.000125103, Final residual = 4.96123e-09, No Iterations 1
DILUPBiCGStab:  Solving for k, Initial residual = 0.000143888, Final residual = 5.29799e-09, No Iterations 1
ExecutionTime = 0.08 s  ClockTime = 0 s

Courant Number mean: 0.00820513 max: 0.0338579
Time = 100.37

diagonal:  Solving for rho, Initial residual = 0, Final residual = 0, No Iterations 0
DILUPBiCGStab:  Solving for Ux, Initial residual = 0.00104481, Final residual = 2.46147e-08, No Iterations 1
DILUPBiCGStab:  Solving for Uy, Initial residual = 0.00076359, Final residual = 2.87131e-08, No Iterations 1
DILUPBiCGStab:  Solving for h, Initial residual = 0.000240103, Final residual = 7.75414e-09, No Iterations 1
DICPCG:  Solving for p_rgh, Initial residual = 0.00607978, Final residual = 5.09286e-05, No Iterations 18
diagonal:  Solving for rho, Initial residual = 0, Final residual = 0, No Iterations 0
time step continuity errors : sum local = 8.10394e-09, global = -7.78609e-11, cumulative = -4.06927e-07
DICPCG:  Solving for p_rgh, Initial residual = 7.52867e-05, Final residual = 8.27895e-09, No Iterations 30
diagonal:  Solving for rho, Initial residual = 0, Final residual = 0, No Iterations 0
time step continuity errors : sum local = 9.20465e-11, global = 9.20096e-11, cumulative = -4.06835e-07
DILUPBiCGStab:  Solving for epsilon, Initial residual = 0.000124565, Final residual = 5.00862e-09, No Iterations 1
DILUPBiCGStab:  Solving for k, Initial residual = 0.000143261, Final residual = 5.29336e-09, No Iterations 1
ExecutionTime = 0.09 s  ClockTime = 0 s

Courant Number mean: 0.00820373 max: 0.0338061
Time = 100.38

diagonal:  Solving for rho, Initial residual = 0, Final residual = 0, No Iterations 0
DILUPBiCGStab:  Solving for Ux, Initial residual = 0.000880194, Final residual = 2.10376e-08, No Iterations 1
DILUPBiCGStab:  Solving for Uy, Initial residual = 0.000658178, Final residual = 2.44136e-08, No Iterations 1
DILUPBiCGStab:  Solving for h, Initial residual = 0.00021406, Final residual = 7.42611e-09, No Iterations 1
DICPCG:  Solving for p_rgh, Initial residual = 0.00975716, Final residual = 6.8387e-05, No Iterations 20
diagonal:  Solving for rho, Initial residual = 0, Final residual = 0, No Iterations 0
time step continuity errors : sum local = 1.06652e-08, global = -1.39823e-10, cumulative = -4.06975e-07
DICPCG:  Solving for p_rgh, Initial residual = 0.000114485, Final residual = 7.88701e-09, No Iterations 30
diagonal:  Solving for rho, Initial residual = 0, Final residual = 0, No Iterations 0
time step continuity errors : sum local = 1.7049e-10, global = 1.7049e-10, cumulative = -4.06805e-07
DILUPBiCGStab:  Solving for epsilon, Initial residual = 0.000123922, Final residual = 5.04092e-09, No Iterations 1
DILUPBiCGStab:  Solving for k, Initial residual = 0.000142575, Final residual = 5.28128e-09, No Iterations 1
ExecutionTime = 0.09 s  ClockTime = 0 s

Courant Number mean: 0.00820265 max: 0.0337701
Time = 100.39

diagonal:  Solving for rho, Initial residual = 0, Final residual = 0, No Iterations 0
DILUPBiCGStab:  Solving for Ux, Initial residual = 0.000609511, Final residual = 1.50282e-08, No Iterations 1
DILUPBiCGStab:  Solving for Uy, Initial residual = 0.000472673, Final residual = 1.68213e-08, No Iterations 1
DILUPBiCGStab:  Solving for h, Initial residual = 0.000197537, Final residual = 7.29454e-09, No Iterations 1
DICPCG:  Solving for p_rgh, Initial residual = 0.0125815, Final residual = 8.70088e-05, No Iterations 20
diagonal:  Solving for rho, Initial residual = 0, Final residual = 0, No Iterations 0
time step continuity errors : sum local = 1.31552e-08, global = 5.70876e-11, cumulative = -4.06748e-07
DICPCG:  Solving for p_rgh, Initial residual = 0.000143136, Final residual = 8.31963e-09, No Iterations 31
diagonal:  Solving for rho, Initial residual = 0, Final residual = 0, No Iterations 0
time step continuity errors : sum local = 2.13069e-10, global = 2.13069e-10, cumulative = -4.06535e-07
DILUPBiCGStab:  Solving for epsilon, Initial residual = 0.000123094, Final residual = 5.04241e-09, No Iterations 1
DILUPBiCGStab:  Solving for k, Initial residual = 0.000141781, Final residual = 5.25806e-09, No Iterations 1
ExecutionTime = 0.09 s  ClockTime = 0 s

Courant Number mean: 0.00820197 max: 0.0337529
Time = 100.4

diagonal:  Solving for rho, Initial residual = 0, Final residual = 0, No Iterations 0
DILUPBiCGStab:  Solving for Ux, Initial residual = 0.000288316, Final residual = 7.56941e-09, No Iterations 1
DILUPBiCGStab:  Solving for Uy, Initial residual = 0.000246728, Final residual = 7.30676e-09, No Iterations 1
DILUPBiCGStab:  Solving for h, Initial residual = 0.000190014, Final residual = 7.26955e-09, No Iterations 1
DICPCG:  Solving for p_rgh, Initial residual = 0.0136879, Final residual = 0.000131141, No Iterations 18
diagonal:  Solving for rho, Initial residual = 0, Final residual = 0, No Iterations 0
time step continuity errors : sum local = 1.92905e-08, global = 6.49478e-10, cumulative = -4.05885e-07
DICPCG:  Solving for p_rgh, Initial residual = 0.000179008, Final residual = 7.18799e-09, No Iterations 32
diagonal:  Solving for rho, Initial residual = 0, Final residual = 0, No Iterations 0
time step continuity errors : sum local = 2.17552e-10, global = 2.17552e-10, cumulative = -4.05668e-07
DILUPBiCGStab:  Solving for epsilon, Initial residual = 0.000122088, Final residual = 5.01322e-09, No Iterations 1
DILUPBiCGStab:  Solving for k, Initial residual = 0.000140847, Final residual = 5.22364e-09, No Iterations 1
ExecutionTime = 0.09 s  ClockTime = 0 s

Courant Number mean: 0.00820167 max: 0.0337544
Time = 100.41

diagonal:  Solving for rho, Initial residual = 0, Final residual = 0, No Iterations 0
DILUPBiCGStab:  Solving for Ux, Initial residual = 0.000147603, Final residual = 3.79894e-09, No Iterations 1
DILUPBiCGStab:  Solving for Uy, Initial residual = 0.000143689, Final residual = 3.94615e-09, No Iterations 1
DILUPBiCGStab:  Solving for h, Initial residual = 0.000189345, Final residual = 7.31376e-09, No Iterations 1
DICPCG:  Solving for p_rgh, Initial residual = 0.0127233, Final residual = 9.12781e-05, No Iterations 16
diagonal:  Solving for rho, Initial residual = 0, Final residual = 0, No Iterations 0
time step continuity errors : sum local = 1.29595e-08, global = 1.50494e-10, cumulative = -4.05517e-07
DICPCG:  Solving for p_rgh, Initial residual = 0.000123585, Final residual = 6.00261e-09, No Iterations 31
diagonal:  Solving for rho, Initial residual = 0, Final residual = 0, No Iterations 0
time step continuity errors : sum local = 1.88088e-10, global = 1.88088e-10, cumulative = -4.05329e-07
DILUPBiCGStab:  Solving for epsilon, Initial residual = 0.000120941, Final residual = 4.96036e-09, No Iterations 1
DILUPBiCGStab:  Solving for k, Initial residual = 0.000139824, Final residual = 5.18023e-09, No Iterations 1
ExecutionTime = 0.1 s  ClockTime = 0 s

Courant Number mean: 0.00820171 max: 0.0337714
Time = 100.42

diagonal:  Solving for rho, Initial residual = 0, Final residual = 0, No Iterations 0
DILUPBiCGStab:  Solving for Ux, Initial residual = 0.000393964, Final residual = 1.02135e-08, No Iterations 1
DILUPBiCGStab:  Solving for Uy, Initial residual = 0.000292283, Final residual = 1.13327e-08, No Iterations 1
DILUPBiCGStab:  Solving for h, Initial residual = 0.000194494, Final residual = 7.39737e-09, No Iterations 1
DICPCG:  Solving for p_rgh, Initial residual = 0.0094777, Final residual = 8.52283e-05, No Iterations 16
diagonal:  Solving for rho, Initial residual = 0, Final residual = 0, No Iterations 0
time step continuity errors : sum local = 1.22224e-08, global = -6.86311e-10, cumulative = -4.06015e-07
DICPCG:  Solving for p_rgh, Initial residual = 0.000102715, Final residual = 4.2571e-09, No Iterations 31
diagonal:  Solving for rho, Initial residual = 0, Final residual = 0, No Iterations 0
time step continuity errors : sum local = 1.33284e-10, global = 1.33284e-10, cumulative = -4.05882e-07
DILUPBiCGStab:  Solving for epsilon, Initial residual = 0.000119715, Final residual = 4.89267e-09, No Iterations 1
DILUPBiCGStab:  Solving for k, Initial residual = 0.000138776, Final residual = 5.13211e-09, No Iterations 1
ExecutionTime = 0.1 s  ClockTime = 0 s

Courant Number mean: 0.00820196 max: 0.033799
Time = 100.43

diagonal:  Solving for rho, Initial residual = 0, Final residual = 0, No Iterations 0
DILUPBiCGStab:  Solving for Ux, Initial residual = 0.000569318, Final residual = 1.38865e-08, No Iterations 1
DILUPBiCGStab:  Solving for Uy, Initial residual = 0.000409765, Final residual = 1.62076e-08, No Iterations 1
DILUPBiCGStab:  Solving for h, Initial residual = 0.000205287, Final residual = 7.52774e-09, No Iterations 1
DICPCG:  Solving for p_rgh, Initial residual = 0.00524601, Final residual = 4.75417e-05, No Iterations 20
diagonal:  Solving for rho, Initial residual = 0, Final residual = 0, No Iterations 0
time step continuity errors : sum local = 6.82623e-09, global = -1.67601e-10, cumulative = -4.0605e-07
DICPCG:  Solving for p_rgh, Initial residual = 6.1141e-05, Final residual = 5.93771e-09, No Iterations 30
diagonal:  Solving for rho, Initial residual = 0, Final residual = 0, No Iterations 0
time step continuity errors : sum local = 6.46915e-11, global = 6.46915e-11, cumulative = -4.05985e-07
DILUPBiCGStab:  Solving for epsilon, Initial residual = 0.000118483, Final residual = 4.82152e-09, No Iterations 1
DILUPBiCGStab:  Solving for k, Initial residual = 0.000137729, Final residual = 5.08297e-09, No Iterations 1
ExecutionTime = 0.1 s  ClockTime = 0 s

Courant Number mean: 0.00820232 max: 0.033831
Time = 100.44

diagonal:  Solving for rho, Initial residual = 0, Final residual = 0, No Iterations 0
DILUPBiCGStab:  Solving for Ux, Initial residual = 0.00064219, Final residual = 1.54353e-08, No Iterations 1
DILUPBiCGStab:  Solving for Uy, Initial residual = 0.00045905, Final residual = 1.82519e-08, No Iterations 1
DILUPBiCGStab:  Solving for h, Initial residual = 0.000220193, Final residual = 7.71509e-09, No Iterations 1
DICPCG:  Solving for p_rgh, Initial residual = 0.00182672, Final residual = 1.79551e-05, No Iterations 21
diagonal:  Solving for rho, Initial residual = 0, Final residual = 0, No Iterations 0
time step continuity errors : sum local = 2.80081e-09, global = -1.71821e-10, cumulative = -4.06157e-07
DICPCG:  Solving for p_rgh, Initial residual = 2.61768e-05, Final residual = 5.76597e-09, No Iterations 29
diagonal:  Solving for rho, Initial residual = 0, Final residual = 0, No Iterations 0
time step continuity errors : sum local = 5.76806e-12, global = -5.33664e-12, cumulative = -4.06162e-07
DILUPBiCGStab:  Solving for epsilon, Initial residual = 0.000117304, Final residual = 4.75504e-09, No Iterations 1
DILUPBiCGStab:  Solving for k, Initial residual = 0.000136721, Final residual = 5.03595e-09, No Iterations 1
ExecutionTime = 0.1 s  ClockTime = 0 s

Courant Number mean: 0.00820265 max: 0.0338616
Time = 100.45

diagonal:  Solving for rho, Initial residual = 0, Final residual = 0, No Iterations 0
DILUPBiCGStab:  Solving for Ux, Initial residual = 0.000613923, Final residual = 1.4785e-08, No Iterations 1
DILUPBiCGStab:  Solving for Uy, Initial residual = 0.000440404, Final residual = 1.75257e-08, No Iterations 1
DILUPBiCGStab:  Solving for h, Initial residual = 0.000237441, Final residual = 7.98472e-09, No Iterations 1
DICPCG:  Solving for p_rgh, Initial residual = 0.00464734, Final residual = 4.10336e-05, No Iterations 18
diagonal:  Solving for rho, Initial residual = 0, Final residual = 0, No Iterations 0
time step continuity errors : sum local = 6.06106e-09, global = -2.43615e-10, cumulative = -4.06406e-07
DICPCG:  Solving for p_rgh, Initial residual = 5.70843e-05, Final residual = 6.70888e-09, No Iterations 30
diagonal:  Solving for rho, Initial residual = 0, Final residual = 0, No Iterations 0
time step continuity errors : sum local = 6.59138e-11, global = -6.59042e-11, cumulative = -4.06472e-07
DILUPBiCGStab:  Solving for epsilon, Initial residual = 0.000116211, Final residual = 4.69953e-09, No Iterations 1
DILUPBiCGStab:  Solving for k, Initial residual = 0.000135757, Final residual = 4.99399e-09, No Iterations 1
ExecutionTime = 0.11 s  ClockTime = 0 s

Courant Number mean: 0.00820286 max: 0.0338856
Time = 100.46

diagonal:  Solving for rho, Initial residual = 0, Final residual = 0, No Iterations 0
DILUPBiCGStab:  Solving for Ux, Initial residual = 0.000501397, Final residual = 1.23213e-08, No Iterations 1
DILUPBiCGStab:  Solving for Uy, Initial residual = 0.00036509, Final residual = 1.44364e-08, No Iterations 1
DILUPBiCGStab:  Solving for h, Initial residual = 0.000253352, Final residual = 8.26157e-09, No Iterations 1
DICPCG:  Solving for p_rgh, Initial residual = 0.00688561, Final residual = 5.76439e-05, No Iterations 20
diagonal:  Solving for rho, Initial residual = 0, Final residual = 0, No Iterations 0
time step continuity errors : sum local = 8.42869e-09, global = -3.16989e-10, cumulative = -4.06789e-07
DICPCG:  Solving for p_rgh, Initial residual = 8.39344e-05, Final residual = 8.77765e-09, No Iterations 30
diagonal:  Solving for rho, Initial residual = 0, Final residual = 0, No Iterations 0
time step continuity errors : sum local = 1.08837e-10, global = -1.08837e-10, cumulative = -4.06897e-07
DILUPBiCGStab:  Solving for epsilon, Initial residual = 0.000115221, Final residual = 4.65782e-09, No Iterations 1
DILUPBiCGStab:  Solving for k, Initial residual = 0.00013485, Final residual = 4.96842e-09, No Iterations 1
ExecutionTime = 0.11 s  ClockTime = 0 s

Courant Number mean: 0.00820285 max: 0.0338998
Time = 100.47

diagonal:  Solving for rho, Initial residual = 0, Final residual = 0, No Iterations 0
DILUPBiCGStab:  Solving for Ux, Initial residual = 0.000332541, Final residual = 8.71574e-09, No Iterations 1
DILUPBiCGStab:  Solving for Uy, Initial residual = 0.000251897, Final residual = 9.64564e-09, No Iterations 1
DILUPBiCGStab:  Solving for h, Initial residual = 0.000264855, Final residual = 8.47847e-09, No Iterations 1
DICPCG:  Solving for p_rgh, Initial residual = 0.00848232, Final residual = 7.75599e-05, No Iterations 20
diagonal:  Solving for rho, Initial residual = 0, Final residual = 0, No Iterations 0
time step continuity errors : sum local = 1.09838e-08, global = -3.43717e-10, cumulative = -4.07241e-07
DICPCG:  Solving for p_rgh, Initial residual = 0.000104551, Final residual = 6.2733e-09, No Iterations 31
diagonal:  Solving for rho, Initial residual = 0, Final residual = 0, No Iterations 0
time step continuity errors : sum local = 1.29709e-10, global = -1.29709e-10, cumulative = -4.07371e-07
DILUPBiCGStab:  Solving for epsilon, Initial residual = 0.000114346, Final residual = 4.63101e-09, No Iterations 1
DILUPBiCGStab:  Solving for k, Initial residual = 0.000134059, Final residual = 4.94593e-09, No Iterations 1
ExecutionTime = 0.11 s  ClockTime = 0 s

Courant Number mean: 0.00820262 max: 0.0339026
Time = 100.48

diagonal:  Solving for rho, Initial residual = 0, Final residual = 0, No Iterations 0
DILUPBiCGStab:  Solving for Ux, Initial residual = 0.000144851, Final residual = 3.98924e-09, No Iterations 1
DILUPBiCGStab:  Solving for Uy, Initial residual = 0.000137926, Final residual = 4.08147e-09, No Iterations 1
DILUPBiCGStab:  Solving for h, Initial residual = 0.000270415, Final residual = 8.6091e-09, No Iterations 1
DICPCG:  Solving for p_rgh, Initial residual = 0.00867331, Final residual = 8.60204e-05, No Iterations 17
diagonal:  Solving for rho, Initial residual = 0, Final residual = 0, No Iterations 0
time step continuity errors : sum local = 1.19246e-08, global = -7.37876e-10, cumulative = -4.08109e-07
DICPCG:  Solving for p_rgh, Initial residual = 0.000107004, Final residual = 5.36113e-09, No Iterations 31
diagonal:  Solving for rho, Initial residual = 0, Final residual = 0, No Iterations 0
time step continuity errors : sum local = 1.2801e-10, global = -1.2801e-10, cumulative = -4.08237e-07
DILUPBiCGStab:  Solving for epsilon, Initial residual = 0.000113548, Final residual = 4.61775e-09, No Iterations 1
DILUPBiCGStab:  Solving for k, Initial residual = 0.000133295, Final residual = 4.9243e-09, No Iterations 1
ExecutionTime = 0.11 s  ClockTime = 0 s

Courant Number mean: 0.00820216 max: 0.0338947
Time = 100.49

diagonal:  Solving for rho, Initial residual = 0, Final residual = 0, No Iterations 0
DILUPBiCGStab:  Solving for Ux, Initial residual = 0.000146625, Final residual = 3.77667e-09, No Iterations 1
DILUPBiCGStab:  Solving for Uy, Initial residual = 0.000137725, Final residual = 3.55743e-09, No Iterations 1
DILUPBiCGStab:  Solving for h, Initial residual = 0.000269832, Final residual = 8.64953e-09, No Iterations 1
DICPCG:  Solving for p_rgh, Initial residual = 0.00741804, Final residual = 5.48402e-05, No Iterations 16
diagonal:  Solving for rho, Initial residual = 0, Final residual = 0, No Iterations 0
time step continuity errors : sum local = 7.7919e-09, global = -1.56731e-10, cumulative = -4.08393e-07
DICPCG:  Solving for p_rgh, Initial residual = 6.93087e-05, Final residual = 6.98855e-09, No Iterations 30
diagonal:  Solving for rho, Initial residual = 0, Final residual = 0, No Iterations 0
time step continuity errors : sum local = 1.06851e-10, global = -1.06851e-10, cumulative = -4.085e-07
DILUPBiCGStab:  Solving for epsilon, Initial residual = 0.000112824, Final residual = 4.61534e-09, No Iterations 1
DILUPBiCGStab:  Solving for k, Initial residual = 0.000132553, Final residual = 4.90443e-09, No Iterations 1
ExecutionTime = 0.11 s  ClockTime = 0 s

Courant Number mean: 0.00820151 max: 0.033878
Time = 100.5

diagonal:  Solving for rho, Initial residual = 0, Final residual = 0, No Iterations 0
DILUPBiCGStab:  Solving for Ux, Initial residual = 0.000293264, Final residual = 7.57966e-09, No Iterations 1
DILUPBiCGStab:  Solving for Uy, Initial residual = 0.000213163, Final residual = 7.21364e-09, No Iterations 1
DILUPBiCGStab:  Solving for h, Initial residual = 0.000263935, Final residual = 8.61219e-09, No Iterations 1
DICPCG:  Solving for p_rgh, Initial residual = 0.00530367, Final residual = 4.90802e-05, No Iterations 18
diagonal:  Solving for rho, Initial residual = 0, Final residual = 0, No Iterations 0
time step continuity errors : sum local = 7.11627e-09, global = 1.2161e-10, cumulative = -4.08379e-07
DICPCG:  Solving for p_rgh, Initial residual = 5.68978e-05, Final residual = 6.32318e-09, No Iterations 30
diagonal:  Solving for rho, Initial residual = 0, Final residual = 0, No Iterations 0
time step continuity errors : sum local = 7.18048e-11, global = -7.18048e-11, cumulative = -4.08451e-07
DILUPBiCGStab:  Solving for epsilon, Initial residual = 0.000112149, Final residual = 4.61971e-09, No Iterations 1
DILUPBiCGStab:  Solving for k, Initial residual = 0.000131826, Final residual = 4.88582e-09, No Iterations 1
ExecutionTime = 0.12 s  ClockTime = 0 s

Courant Number mean: 0.00820075 max: 0.0338557
Time = 100.51

diagonal:  Solving for rho, Initial residual = 0, Final residual = 0, No Iterations 0
DILUPBiCGStab:  Solving for Ux, Initial residual = 0.00038808, Final residual = 9.78103e-09, No Iterations 1
DILUPBiCGStab:  Solving for Uy, Initial residual = 0.000277269, Final residual = 9.94154e-09, No Iterations 1
DILUPBiCGStab:  Solving for h, Initial residual = 0.000254327, Final residual = 8.52036e-09, No Iterations 1
DICPCG:  Solving for p_rgh, Initial residual = 0.00283428, Final residual = 2.54753e-05, No Iterations 21
diagonal:  Solving for rho, Initial residual = 0, Final residual = 0, No Iterations 0
time step continuity errors : sum local = 3.7292e-09, global = -9.47948e-11, cumulative = -4.08545e-07
DICPCG:  Solving for p_rgh, Initial residual = 2.93505e-05, Final residual = 8.53618e-09, No Iterations 28
diagonal:  Solving for rho, Initial residual = 0, Final residual = 0, No Iterations 0
time step continuity errors : sum local = 3.00373e-11, global = -3.00358e-11, cumulative = -4.08575e-07
DILUPBiCGStab:  Solving for epsilon, Initial residual = 0.000111483, Final residual = 4.62619e-09, No Iterations 1
DILUPBiCGStab:  Solving for k, Initial residual = 0.000131107, Final residual = 4.86889e-09, No Iterations 1
ExecutionTime = 0.12 s  ClockTime = 0 s

Courant Number mean: 0.00819994 max: 0.0338315
Time = 100.52

diagonal:  Solving for rho, Initial residual = 0, Final residual = 0, No Iterations 0
DILUPBiCGStab:  Solving for Ux, Initial residual = 0.000420317, Final residual = 1.0524e-08, No Iterations 1
DILUPBiCGStab:  Solving for Uy, Initial residual = 0.000305463, Final residual = 1.09569e-08, No Iterations 1
DILUPBiCGStab:  Solving for h, Initial residual = 0.000243061, Final residual = 8.4062e-09, No Iterations 1
DICPCG:  Solving for p_rgh, Initial residual = 0.00176319, Final residual = 1.75711e-05, No Iterations 21
diagonal:  Solving for rho, Initial residual = 0, Final residual = 0, No Iterations 0
time step continuity errors : sum local = 2.67783e-09, global = -1.21192e-10, cumulative = -4.08697e-07
DICPCG:  Solving for p_rgh, Initial residual = 2.45019e-05, Final residual = 9.69149e-09, No Iterations 28
diagonal:  Solving for rho, Initial residual = 0, Final residual = 0, No Iterations 0
time step continuity errors : sum local = 1.13584e-11, global = 1.12393e-11, cumulative = -4.08685e-07
DILUPBiCGStab:  Solving for epsilon, Initial residual = 0.000110798, Final residual = 4.63036e-09, No Iterations 1
DILUPBiCGStab:  Solving for k, Initial residual = 0.000130391, Final residual = 4.85251e-09, No Iterations 1
ExecutionTime = 0.12 s  ClockTime = 0 s

Courant Number mean: 0.00819915 max: 0.0338088
Time = 100.53

diagonal:  Solving for rho, Initial residual = 0, Final residual = 0, No Iterations 0
DILUPBiCGStab:  Solving for Ux, Initial residual = 0.000392655, Final residual = 9.91359e-09, No Iterations 1
DILUPBiCGStab:  Solving for Uy, Initial residual = 0.000290576, Final residual = 1.02336e-08, No Iterations 1
DILUPBiCGStab:  Solving for h, Initial residual = 0.0002322, Final residual = 8.29954e-09, No Iterations 1
DICPCG:  Solving for p_rgh, Initial residual = 0.00343169, Final residual = 2.79285e-05, No Iterations 19
diagonal:  Solving for rho, Initial residual = 0, Final residual = 0, No Iterations 0
time step continuity errors : sum local = 4.12475e-09, global = -5.59309e-11, cumulative = -4.08741e-07
DICPCG:  Solving for p_rgh, Initial residual = 4.32758e-05, Final residual = 6.33456e-09, No Iterations 29
diagonal:  Solving for rho, Initial residual = 0, Final residual = 0, No Iterations 0
time step continuity errors : sum local = 4.56911e-11, global = 4.56911e-11, cumulative = -4.08696e-07
DILUPBiCGStab:  Solving for epsilon, Initial residual = 0.000110075, Final residual = 4.62868e-09, No Iterations 1
DILUPBiCGStab:  Solving for k, Initial residual = 0.000129676, Final residual = 4.84708e-09, No Iterations 1
ExecutionTime = 0.12 s  ClockTime = 0 s

Courant Number mean: 0.00819846 max: 0.0337905
Time = 100.54

diagonal:  Solving for rho, Initial residual = 0, Final residual = 0, No Iterations 0
DILUPBiCGStab:  Solving for Ux, Initial residual = 0.000316723, Final residual = 8.16378e-09, No Iterations 1
DILUPBiCGStab:  Solving for Uy, Initial residual = 0.000240439, Final residual = 8.06954e-09, No Iterations 1
DILUPBiCGStab:  Solving for h, Initial residual = 0.000223433, Final residual = 8.23787e-09, No Iterations 1
DICPCG:  Solving for p_rgh, Initial residual = 0.0046749, Final residual = 3.82439e-05, No Iterations 20
diagonal:  Solving for rho, Initial residual = 0, Final residual = 0, No Iterations 0
time step continuity errors : sum local = 5.53275e-09, global = -5.5311e-11, cumulative = -4.08751e-07
DICPCG:  Solving for p_rgh, Initial residual = 5.78177e-05, Final residual = 7.18124e-09, No Iterations 29
diagonal:  Solving for rho, Initial residual = 0, Final residual = 0, No Iterations 0
time step continuity errors : sum local = 6.89245e-11, global = 6.89245e-11, cumulative = -4.08682e-07
DILUPBiCGStab:  Solving for epsilon, Initial residual = 0.000109301, Final residual = 4.61954e-09, No Iterations 1
DILUPBiCGStab:  Solving for k, Initial residual = 0.000128948, Final residual = 4.83914e-09, No Iterations 1
ExecutionTime = 0.13 s  ClockTime = 0 s

Courant Number mean: 0.00819789 max: 0.0337783
Time = 100.55

diagonal:  Solving for rho, Initial residual = 0, Final residual = 0, No Iterations 0
DILUPBiCGStab:  Solving for Ux, Initial residual = 0.000211042, Final residual = 5.48686e-09, No Iterations 1
DILUPBiCGStab:  Solving for Uy, Initial residual = 0.000169715, Final residual = 5.0784e-09, No Iterations 1
DILUPBiCGStab:  Solving for h, Initial residual = 0.000217902, Final residual = 8.22549e-09, No Iterations 1
DICPCG:  Solving for p_rgh, Initial residual = 0.00543081, Final residual = 4.57583e-05, No Iterations 20
diagonal:  Solving for rho, Initial residual = 0, Final residual = 0, No Iterations 0
time step continuity errors : sum local = 6.44401e-09, global = -1.75202e-11, cumulative = -4.08699e-07
DICPCG:  Solving for p_rgh, Initial residual = 6.72664e-05, Final residual = 7.69608e-09, No Iterations 29
diagonal:  Solving for rho, Initial residual = 0, Final residual = 0, No Iterations 0
time step continuity errors : sum local = 7.87016e-11, global = 7.87016e-11, cumulative = -4.08621e-07
DILUPBiCGStab:  Solving for epsilon, Initial residual = 0.000108477, Final residual = 4.60159e-09, No Iterations 1
DILUPBiCGStab:  Solving for k, Initial residual = 0.000128207, Final residual = 4.82835e-09, No Iterations 1
ExecutionTime = 0.13 s  ClockTime = 0 s

Courant Number mean: 0.00819746 max: 0.033773
Time = 100.56

diagonal:  Solving for rho, Initial residual = 0, Final residual = 0, No Iterations 0
DILUPBiCGStab:  Solving for Ux, Initial residual = 0.000102021, Final residual = 2.45895e-09, No Iterations 1
DILUPBiCGStab:  Solving for Uy, Initial residual = 0.000111775, Final residual = 2.69151e-09, No Iterations 1
DILUPBiCGStab:  Solving for h, Initial residual = 0.000215699, Final residual = 8.25122e-09, No Iterations 1
DICPCG:  Solving for p_rgh, Initial residual = 0.00542167, Final residual = 3.93031e-05, No Iterations 17
diagonal:  Solving for rho, Initial residual = 0, Final residual = 0, No Iterations 0
time step continuity errors : sum local = 5.35969e-09, global = 2.09822e-10, cumulative = -4.08411e-07
DICPCG:  Solving for p_rgh, Initial residual = 5.78273e-05, Final residual = 8.26169e-09, No Iterations 29
diagonal:  Solving for rho, Initial residual = 0, Final residual = 0, No Iterations 0
time step continuity errors : sum local = 7.51864e-11, global = 7.51864e-11, cumulative = -4.08336e-07
DILUPBiCGStab:  Solving for epsilon, Initial residual = 0.000107609, Final residual = 4.57567e-09, No Iterations 1
DILUPBiCGStab:  Solving for k, Initial residual = 0.000127454, Final residual = 4.81493e-09, No Iterations 1
ExecutionTime = 0.13 s  ClockTime = 0 s

Courant Number mean: 0.00819716 max: 0.0337738
Time = 100.57

diagonal:  Solving for rho, Initial residual = 0, Final residual = 0, No Iterations 0
DILUPBiCGStab:  Solving for Ux, Initial residual = 0.000125373, Final residual = 3.18689e-09, No Iterations 1
DILUPBiCGStab:  Solving for Uy, Initial residual = 0.000116681, Final residual = 3.27473e-09, No Iterations 1
DILUPBiCGStab:  Solving for h, Initial residual = 0.000216443, Final residual = 8.30149e-09, No Iterations 1
DICPCG:  Solving for p_rgh, Initial residual = 0.00467742, Final residual = 4.60474e-05, No Iterations 15
diagonal:  Solving for rho, Initial residual = 0, Final residual = 0, No Iterations 0
time step continuity errors : sum local = 6.44965e-09, global = -2.06464e-10, cumulative = -4.08542e-07
DICPCG:  Solving for p_rgh, Initial residual = 5.63081e-05, Final residual = 9.48289e-09, No Iterations 29
diagonal:  Solving for rho, Initial residual = 0, Final residual = 0, No Iterations 0
time step continuity errors : sum local = 6.06352e-11, global = 6.06338e-11, cumulative = -4.08482e-07
DILUPBiCGStab:  Solving for epsilon, Initial residual = 0.000106713, Final residual = 4.5438e-09, No Iterations 1
DILUPBiCGStab:  Solving for k, Initial residual = 0.000126695, Final residual = 4.79945e-09, No Iterations 1
ExecutionTime = 0.13 s  ClockTime = 0 s

Courant Number mean: 0.00819696 max: 0.0337795
Time = 100.58

diagonal:  Solving for rho, Initial residual = 0, Final residual = 0, No Iterations 0
DILUPBiCGStab:  Solving for Ux, Initial residual = 0.000199647, Final residual = 5.47849e-09, No Iterations 1
DILUPBiCGStab:  Solving for Uy, Initial residual = 0.000158037, Final residual = 5.50367e-09, No Iterations 1
DILUPBiCGStab:  Solving for h, Initial residual = 0.000219672, Final residual = 8.37522e-09, No Iterations 1
DICPCG:  Solving for p_rgh, Initial residual = 0.00335034, Final residual = 3.17342e-05, No Iterations 19
diagonal:  Solving for rho, Initial residual = 0, Final residual = 0, No Iterations 0
time step continuity errors : sum local = 4.48065e-09, global = -2.34641e-10, cumulative = -4.08716e-07
DICPCG:  Solving for p_rgh, Initial residual = 3.99121e-05, Final residual = 8.37416e-09, No Iterations 29
diagonal:  Solving for rho, Initial residual = 0, Final residual = 0, No Iterations 0
time step continuity errors : sum local = 3.85148e-11, global = 3.85073e-11, cumulative = -4.08678e-07
DILUPBiCGStab:  Solving for epsilon, Initial residual = 0.000105806, Final residual = 4.50897e-09, No Iterations 1
DILUPBiCGStab:  Solving for k, Initial residual = 0.000125937, Final residual = 4.78286e-09, No Iterations 1
ExecutionTime = 0.14 s  ClockTime = 0 s

Courant Number mean: 0.00819682 max: 0.033788
Time = 100.59

diagonal:  Solving for rho, Initial residual = 0, Final residual = 0, No Iterations 0
DILUPBiCGStab:  Solving for Ux, Initial residual = 0.00024821, Final residual = 6.76978e-09, No Iterations 1
DILUPBiCGStab:  Solving for Uy, Initial residual = 0.000186778, Final residual = 6.92525e-09, No Iterations 1
DILUPBiCGStab:  Solving for h, Initial residual = 0.000224837, Final residual = 8.47458e-09, No Iterations 1
DICPCG:  Solving for p_rgh, Initial residual = 0.00178084, Final residual = 1.41212e-05, No Iterations 20
diagonal:  Solving for rho, Initial residual = 0, Final residual = 0, No Iterations 0
[...]
DILUPBiCGStab:  Solving for Ux, Initial residual = 5.68036e-05, Final residual = 2.68655e-09, No Iterations 1
DILUPBiCGStab:  Solving for Uy, Initial residual = 0.000142341, Final residual = 6.70939e-09, No Iterations 1
DILUPBiCGStab:  Solving for h, Initial residual = 0.000212579, Final residual = 1.45821e-08, No Iterations 1
DICPCG:  Solving for p_rgh, Initial residual = 0.000484187, Final residual = 3.87299e-06, No Iterations 17
diagonal:  Solving for rho, Initial residual = 0, Final residual = 0, No Iterations 0
time step continuity errors : sum local = 5.57245e-10, global = -5.74155e-11, cumulative = -4.3088e-07
DICPCG:  Solving for p_rgh, Initial residual = 6.60763e-06, Final residual = 7.61054e-09, No Iterations 27
diagonal:  Solving for rho, Initial residual = 0, Final residual = 0, No Iterations 0
time step continuity errors : sum local = 9.15633e-13, global = 3.73571e-13, cumulative = -4.3088e-07
DILUPBiCGStab:  Solving for epsilon, Initial residual = 9.40644e-05, Final residual = 3.47127e-09, No Iterations 1
DILUPBiCGStab:  Solving for k, Initial residual = 0.000110102, Final residual = 4.54169e-09, No Iterations 1
ExecutionTime = 0.73 s  ClockTime = 0 s

Courant Number mean: 0.00802346 max: 0.0319552
Time = 103.06

diagonal:  Solving for rho, Initial residual = 0, Final residual = 0, No Iterations 0
DILUPBiCGStab:  Solving for Ux, Initial residual = 5.66903e-05, Final residual = 2.68163e-09, No Iterations 1
DILUPBiCGStab:  Solving for Uy, Initial residual = 0.000142366, Final residual = 6.7109e-09, No Iterations 1
DILUPBiCGStab:  Solving for h, Initial residual = 0.000212532, Final residual = 1.45569e-08, No Iterations 1
DICPCG:  Solving for p_rgh, Initial residual = 0.000482813, Final residual = 3.87948e-06, No Iterations 17
diagonal:  Solving for rho, Initial residual = 0, Final residual = 0, No Iterations 0
time step continuity errors : sum local = 5.57954e-10, global = -5.73328e-11, cumulative = -4.30937e-07
DICPCG:  Solving for p_rgh, Initial residual = 6.60722e-06, Final residual = 7.56907e-09, No Iterations 27
diagonal:  Solving for rho, Initial residual = 0, Final residual = 0, No Iterations 0
time step continuity errors : sum local = 9.01882e-13, global = 3.81289e-13, cumulative = -4.30937e-07
DILUPBiCGStab:  Solving for epsilon, Initial residual = 9.39858e-05, Final residual = 3.46342e-09, No Iterations 1
DILUPBiCGStab:  Solving for k, Initial residual = 0.000109968, Final residual = 4.52738e-09, No Iterations 1
ExecutionTime = 0.73 s  ClockTime = 0 s

Courant Number mean: 0.00802274 max: 0.0319511
Time = 103.07

diagonal:  Solving for rho, Initial residual = 0, Final residual = 0, No Iterations 0
DILUPBiCGStab:  Solving for Ux, Initial residual = 5.65771e-05, Final residual = 2.67658e-09, No Iterations 1
DILUPBiCGStab:  Solving for Uy, Initial residual = 0.00014239, Final residual = 6.71219e-09, No Iterations 1
DILUPBiCGStab:  Solving for h, Initial residual = 0.000212484, Final residual = 1.45315e-08, No Iterations 1
DICPCG:  Solving for p_rgh, Initial residual = 0.00048144, Final residual = 3.88671e-06, No Iterations 17
diagonal:  Solving for rho, Initial residual = 0, Final residual = 0, No Iterations 0
time step continuity errors : sum local = 5.58671e-10, global = -5.7247e-11, cumulative = -4.30994e-07
DICPCG:  Solving for p_rgh, Initial residual = 6.60696e-06, Final residual = 7.52614e-09, No Iterations 27
diagonal:  Solving for rho, Initial residual = 0, Final residual = 0, No Iterations 0
time step continuity errors : sum local = 9.02361e-13, global = 3.7026e-13, cumulative = -4.30994e-07
DILUPBiCGStab:  Solving for epsilon, Initial residual = 9.39053e-05, Final residual = 3.45547e-09, No Iterations 1
DILUPBiCGStab:  Solving for k, Initial residual = 0.000109831, Final residual = 4.51302e-09, No Iterations 1
ExecutionTime = 0.73 s  ClockTime = 0 s

Courant Number mean: 0.00802202 max: 0.0319471
Time = 103.08

diagonal:  Solving for rho, Initial residual = 0, Final residual = 0, No Iterations 0
DILUPBiCGStab:  Solving for Ux, Initial residual = 5.64638e-05, Final residual = 2.67143e-09, No Iterations 1
DILUPBiCGStab:  Solving for Uy, Initial residual = 0.000142413, Final residual = 6.71328e-09, No Iterations 1
DILUPBiCGStab:  Solving for h, Initial residual = 0.000212435, Final residual = 1.45058e-08, No Iterations 1
DICPCG:  Solving for p_rgh, Initial residual = 0.000480062, Final residual = 3.89397e-06, No Iterations 17
diagonal:  Solving for rho, Initial residual = 0, Final residual = 0, No Iterations 0
time step continuity errors : sum local = 5.59386e-10, global = -5.71641e-11, cumulative = -4.31051e-07
DICPCG:  Solving for p_rgh, Initial residual = 6.60639e-06, Final residual = 7.48119e-09, No Iterations 27
diagonal:  Solving for rho, Initial residual = 0, Final residual = 0, No Iterations 0
time step continuity errors : sum local = 8.84675e-13, global = 3.73659e-13, cumulative = -4.3105e-07
DILUPBiCGStab:  Solving for epsilon, Initial residual = 9.3823e-05, Final residual = 3.44744e-09, No Iterations 1
DILUPBiCGStab:  Solving for k, Initial residual = 0.000109692, Final residual = 4.49866e-09, No Iterations 1
ExecutionTime = 0.74 s  ClockTime = 0 s

Courant Number mean: 0.0080213 max: 0.0319431
Time = 103.09

diagonal:  Solving for rho, Initial residual = 0, Final residual = 0, No Iterations 0
DILUPBiCGStab:  Solving for Ux, Initial residual = 5.63539e-05, Final residual = 2.66616e-09, No Iterations 1
DILUPBiCGStab:  Solving for Uy, Initial residual = 0.000142435, Final residual = 6.71416e-09, No Iterations 1
DILUPBiCGStab:  Solving for h, Initial residual = 0.000212385, Final residual = 1.44799e-08, No Iterations 1
DICPCG:  Solving for p_rgh, Initial residual = 0.000478678, Final residual = 3.90081e-06, No Iterations 17
diagonal:  Solving for rho, Initial residual = 0, Final residual = 0, No Iterations 0
time step continuity errors : sum local = 5.6011e-10, global = -5.70926e-11, cumulative = -4.31108e-07
DICPCG:  Solving for p_rgh, Initial residual = 6.60642e-06, Final residual = 7.43301e-09, No Iterations 27
diagonal:  Solving for rho, Initial residual = 0, Final residual = 0, No Iterations 0
time step continuity errors : sum local = 8.89584e-13, global = 3.63132e-13, cumulative = -4.31107e-07
DILUPBiCGStab:  Solving for epsilon, Initial residual = 9.37607e-05, Final residual = 3.43932e-09, No Iterations 1
DILUPBiCGStab:  Solving for k, Initial residual = 0.000109551, Final residual = 4.48418e-09, No Iterations 1
ExecutionTime = 0.74 s  ClockTime = 1 s

Courant Number mean: 0.00802059 max: 0.0319391
Time = 103.1

diagonal:  Solving for rho, Initial residual = 0, Final residual = 0, No Iterations 0
DILUPBiCGStab:  Solving for Ux, Initial residual = 5.62465e-05, Final residual = 2.66075e-09, No Iterations 1
DILUPBiCGStab:  Solving for Uy, Initial residual = 0.000142456, Final residual = 6.71484e-09, No Iterations 1
DILUPBiCGStab:  Solving for h, Initial residual = 0.000212334, Final residual = 1.44539e-08, No Iterations 1
DICPCG:  Solving for p_rgh, Initial residual = 0.000477289, Final residual = 3.90769e-06, No Iterations 17
diagonal:  Solving for rho, Initial residual = 0, Final residual = 0, No Iterations 0
time step continuity errors : sum local = 5.60802e-10, global = -5.69948e-11, cumulative = -4.31164e-07
DICPCG:  Solving for p_rgh, Initial residual = 6.60658e-06, Final residual = 7.38096e-09, No Iterations 27
diagonal:  Solving for rho, Initial residual = 0, Final residual = 0, No Iterations 0
time step continuity errors : sum local = 8.78817e-13, global = 3.67567e-13, cumulative = -4.31164e-07
DILUPBiCGStab:  Solving for epsilon, Initial residual = 9.37024e-05, Final residual = 3.43113e-09, No Iterations 1
DILUPBiCGStab:  Solving for k, Initial residual = 0.000109408, Final residual = 4.46958e-09, No Iterations 1
ExecutionTime = 0.74 s  ClockTime = 1 s

Courant Number mean: 0.00801987 max: 0.0319351
Time = 103.11

diagonal:  Solving for rho, Initial residual = 0, Final residual = 0, No Iterations 0
DILUPBiCGStab:  Solving for Ux, Initial residual = 5.61392e-05, Final residual = 2.65521e-09, No Iterations 1
DILUPBiCGStab:  Solving for Uy, Initial residual = 0.000142476, Final residual = 6.7153e-09, No Iterations 1
DILUPBiCGStab:  Solving for h, Initial residual = 0.000212282, Final residual = 1.44277e-08, No Iterations 1
DICPCG:  Solving for p_rgh, Initial residual = 0.000475895, Final residual = 3.91453e-06, No Iterations 17
diagonal:  Solving for rho, Initial residual = 0, Final residual = 0, No Iterations 0
time step continuity errors : sum local = 5.6146e-10, global = -5.68989e-11, cumulative = -4.31221e-07
DICPCG:  Solving for p_rgh, Initial residual = 6.60616e-06, Final residual = 7.32485e-09, No Iterations 27
diagonal:  Solving for rho, Initial residual = 0, Final residual = 0, No Iterations 0
time step continuity errors : sum local = 8.78537e-13, global = 3.56116e-13, cumulative = -4.3122e-07
DILUPBiCGStab:  Solving for epsilon, Initial residual = 9.36441e-05, Final residual = 3.42285e-09, No Iterations 1
DILUPBiCGStab:  Solving for k, Initial residual = 0.000109264, Final residual = 4.45486e-09, No Iterations 1
ExecutionTime = 0.74 s  ClockTime = 1 s

Courant Number mean: 0.00801915 max: 0.0319311
Time = 103.12

diagonal:  Solving for rho, Initial residual = 0, Final residual = 0, No Iterations 0
DILUPBiCGStab:  Solving for Ux, Initial residual = 5.6032e-05, Final residual = 2.64961e-09, No Iterations 1
DILUPBiCGStab:  Solving for Uy, Initial residual = 0.000142496, Final residual = 6.71556e-09, No Iterations 1
DILUPBiCGStab:  Solving for h, Initial residual = 0.000212229, Final residual = 1.44013e-08, No Iterations 1
DICPCG:  Solving for p_rgh, Initial residual = 0.000474495, Final residual = 3.92047e-06, No Iterations 17
diagonal:  Solving for rho, Initial residual = 0, Final residual = 0, No Iterations 0
time step continuity errors : sum local = 5.62036e-10, global = -5.6814e-11, cumulative = -4.31277e-07
DICPCG:  Solving for p_rgh, Initial residual = 6.60496e-06, Final residual = 7.26454e-09, No Iterations 27
diagonal:  Solving for rho, Initial residual = 0, Final residual = 0, No Iterations 0
time step continuity errors : sum local = 8.6618e-13, global = 3.59266e-13, cumulative = -4.31277e-07
DILUPBiCGStab:  Solving for epsilon, Initial residual = 9.35928e-05, Final residual = 3.4145e-09, No Iterations 1
DILUPBiCGStab:  Solving for k, Initial residual = 0.000109117, Final residual = 4.44002e-09, No Iterations 1
ExecutionTime = 0.74 s  ClockTime = 1 s

Courant Number mean: 0.00801844 max: 0.0319271
Time = 103.13

diagonal:  Solving for rho, Initial residual = 0, Final residual = 0, No Iterations 0
DILUPBiCGStab:  Solving for Ux, Initial residual = 5.59248e-05, Final residual = 2.64484e-09, No Iterations 1
DILUPBiCGStab:  Solving for Uy, Initial residual = 0.000142514, Final residual = 6.71561e-09, No Iterations 1
DILUPBiCGStab:  Solving for h, Initial residual = 0.000212175, Final residual = 1.43747e-08, No Iterations 1
DICPCG:  Solving for p_rgh, Initial residual = 0.000473091, Final residual = 3.92574e-06, No Iterations 17
diagonal:  Solving for rho, Initial residual = 0, Final residual = 0, No Iterations 0
time step continuity errors : sum local = 5.62556e-10, global = -5.67144e-11, cumulative = -4.31334e-07
DICPCG:  Solving for p_rgh, Initial residual = 6.60331e-06, Final residual = 7.19831e-09, No Iterations 27
diagonal:  Solving for rho, Initial residual = 0, Final residual = 0, No Iterations 0
time step continuity errors : sum local = 8.62565e-13, global = 3.48633e-13, cumulative = -4.31333e-07
DILUPBiCGStab:  Solving for epsilon, Initial residual = 9.35413e-05, Final residual = 3.40607e-09, No Iterations 1
DILUPBiCGStab:  Solving for k, Initial residual = 0.000108968, Final residual = 4.42508e-09, No Iterations 1
ExecutionTime = 0.75 s  ClockTime = 1 s

Courant Number mean: 0.00801772 max: 0.0319232
Time = 103.14

diagonal:  Solving for rho, Initial residual = 0, Final residual = 0, No Iterations 0
DILUPBiCGStab:  Solving for Ux, Initial residual = 5.58182e-05, Final residual = 2.64015e-09, No Iterations 1
DILUPBiCGStab:  Solving for Uy, Initial residual = 0.000142531, Final residual = 6.71546e-09, No Iterations 1
DILUPBiCGStab:  Solving for h, Initial residual = 0.00021212, Final residual = 1.43479e-08, No Iterations 1
DICPCG:  Solving for p_rgh, Initial residual = 0.000471683, Final residual = 3.93029e-06, No Iterations 17
diagonal:  Solving for rho, Initial residual = 0, Final residual = 0, No Iterations 0
time step continuity errors : sum local = 5.63102e-10, global = -5.66191e-11, cumulative = -4.3139e-07
DICPCG:  Solving for p_rgh, Initial residual = 6.60127e-06, Final residual = 7.12752e-09, No Iterations 27
diagonal:  Solving for rho, Initial residual = 0, Final residual = 0, No Iterations 0
time step continuity errors : sum local = 8.67886e-13, global = 3.4972e-13, cumulative = -4.31389e-07
DILUPBiCGStab:  Solving for epsilon, Initial residual = 9.34879e-05, Final residual = 3.39756e-09, No Iterations 1
DILUPBiCGStab:  Solving for k, Initial residual = 0.000108817, Final residual = 4.41002e-09, No Iterations 1
ExecutionTime = 0.75 s  ClockTime = 1 s

Courant Number mean: 0.008017 max: 0.0319193
Time = 103.15

diagonal:  Solving for rho, Initial residual = 0, Final residual = 0, No Iterations 0
DILUPBiCGStab:  Solving for Ux, Initial residual = 5.5712e-05, Final residual = 2.63542e-09, No Iterations 1
DILUPBiCGStab:  Solving for Uy, Initial residual = 0.000142552, Final residual = 6.71511e-09, No Iterations 1
DILUPBiCGStab:  Solving for h, Initial residual = 0.000212064, Final residual = 1.4321e-08, No Iterations 1
DICPCG:  Solving for p_rgh, Initial residual = 0.00047027, Final residual = 3.93434e-06, No Iterations 17
diagonal:  Solving for rho, Initial residual = 0, Final residual = 0, No Iterations 0
time step continuity errors : sum local = 5.63639e-10, global = -5.65148e-11, cumulative = -4.31446e-07
DICPCG:  Solving for p_rgh, Initial residual = 6.59858e-06, Final residual = 7.05028e-09, No Iterations 27
diagonal:  Solving for rho, Initial residual = 0, Final residual = 0, No Iterations 0
time step continuity errors : sum local = 8.55601e-13, global = 3.37567e-13, cumulative = -4.31446e-07
DILUPBiCGStab:  Solving for epsilon, Initial residual = 9.3433e-05, Final residual = 3.38916e-09, No Iterations 1
DILUPBiCGStab:  Solving for k, Initial residual = 0.000108664, Final residual = 4.39485e-09, No Iterations 1
ExecutionTime = 0.75 s  ClockTime = 1 s

Courant Number mean: 0.00801628 max: 0.0319154
Time = 103.16

diagonal:  Solving for rho, Initial residual = 0, Final residual = 0, No Iterations 0
DILUPBiCGStab:  Solving for Ux, Initial residual = 5.56167e-05, Final residual = 2.63063e-09, No Iterations 1
DILUPBiCGStab:  Solving for Uy, Initial residual = 0.000142578, Final residual = 6.7148e-09, No Iterations 1
DILUPBiCGStab:  Solving for h, Initial residual = 0.000212008, Final residual = 1.42938e-08, No Iterations 1
DICPCG:  Solving for p_rgh, Initial residual = 0.000468853, Final residual = 3.93723e-06, No Iterations 17
diagonal:  Solving for rho, Initial residual = 0, Final residual = 0, No Iterations 0
time step continuity errors : sum local = 5.63993e-10, global = -5.64169e-11, cumulative = -4.31502e-07
DICPCG:  Solving for p_rgh, Initial residual = 6.59549e-06, Final residual = 6.96739e-09, No Iterations 27
diagonal:  Solving for rho, Initial residual = 0, Final residual = 0, No Iterations 0
time step continuity errors : sum local = 8.29641e-13, global = 3.40377e-13, cumulative = -4.31502e-07
DILUPBiCGStab:  Solving for epsilon, Initial residual = 9.33766e-05, Final residual = 3.3813e-09, No Iterations 1
DILUPBiCGStab:  Solving for k, Initial residual = 0.000108509, Final residual = 4.37958e-09, No Iterations 1
ExecutionTime = 0.75 s  ClockTime = 1 s

Courant Number mean: 0.00801557 max: 0.0319115
Time = 103.17

diagonal:  Solving for rho, Initial residual = 0, Final residual = 0, No Iterations 0
DILUPBiCGStab:  Solving for Ux, Initial residual = 5.55215e-05, Final residual = 2.62568e-09, No Iterations 1
DILUPBiCGStab:  Solving for Uy, Initial residual = 0.000142602, Final residual = 6.7145e-09, No Iterations 1
DILUPBiCGStab:  Solving for h, Initial residual = 0.00021195, Final residual = 1.42665e-08, No Iterations 1
DICPCG:  Solving for p_rgh, Initial residual = 0.000467432, Final residual = 3.93947e-06, No Iterations 17
diagonal:  Solving for rho, Initial residual = 0, Final residual = 0, No Iterations 0
time step continuity errors : sum local = 5.64284e-10, global = -5.63036e-11, cumulative = -4.31558e-07
DICPCG:  Solving for p_rgh, Initial residual = 6.59282e-06, Final residual = 9.71963e-09, No Iterations 26
diagonal:  Solving for rho, Initial residual = 0, Final residual = 0, No Iterations 0
time step continuity errors : sum local = 1.15682e-12, global = 3.19209e-13, cumulative = -4.31558e-07
DILUPBiCGStab:  Solving for epsilon, Initial residual = 9.33183e-05, Final residual = 3.37396e-09, No Iterations 1
DILUPBiCGStab:  Solving for k, Initial residual = 0.000108353, Final residual = 4.36421e-09, No Iterations 1
ExecutionTime = 0.76 s  ClockTime = 1 s

Courant Number mean: 0.00801485 max: 0.0319076
Time = 103.18

diagonal:  Solving for rho, Initial residual = 0, Final residual = 0, No Iterations 0
DILUPBiCGStab:  Solving for Ux, Initial residual = 5.54263e-05, Final residual = 2.62058e-09, No Iterations 1
DILUPBiCGStab:  Solving for Uy, Initial residual = 0.00014263, Final residual = 6.71401e-09, No Iterations 1
DILUPBiCGStab:  Solving for h, Initial residual = 0.000211892, Final residual = 1.4239e-08, No Iterations 1
DICPCG:  Solving for p_rgh, Initial residual = 0.000466007, Final residual = 3.94171e-06, No Iterations 17
diagonal:  Solving for rho, Initial residual = 0, Final residual = 0, No Iterations 0
time step continuity errors : sum local = 5.64517e-10, global = -5.61919e-11, cumulative = -4.31614e-07
DICPCG:  Solving for p_rgh, Initial residual = 6.58981e-06, Final residual = 9.40928e-09, No Iterations 26
diagonal:  Solving for rho, Initial residual = 0, Final residual = 0, No Iterations 0
time step continuity errors : sum local = 1.13648e-12, global = 3.15521e-13, cumulative = -4.31614e-07
DILUPBiCGStab:  Solving for epsilon, Initial residual = 9.32582e-05, Final residual = 3.36657e-09, No Iterations 1
DILUPBiCGStab:  Solving for k, Initial residual = 0.000108195, Final residual = 4.34874e-09, No Iterations 1
ExecutionTime = 0.76 s  ClockTime = 1 s

Courant Number mean: 0.00801413 max: 0.0319038
Time = 103.19

diagonal:  Solving for rho, Initial residual = 0, Final residual = 0, No Iterations 0
DILUPBiCGStab:  Solving for Ux, Initial residual = 5.53311e-05, Final residual = 2.61533e-09, No Iterations 1
DILUPBiCGStab:  Solving for Uy, Initial residual = 0.000142658, Final residual = 6.71334e-09, No Iterations 1
DILUPBiCGStab:  Solving for h, Initial residual = 0.000211832, Final residual = 1.42113e-08, No Iterations 1
DICPCG:  Solving for p_rgh, Initial residual = 0.000464577, Final residual = 3.94164e-06, No Iterations 17
diagonal:  Solving for rho, Initial residual = 0, Final residual = 0, No Iterations 0
time step continuity errors : sum local = 5.64583e-10, global = -5.60752e-11, cumulative = -4.3167e-07
DICPCG:  Solving for p_rgh, Initial residual = 6.58485e-06, Final residual = 9.04208e-09, No Iterations 26
diagonal:  Solving for rho, Initial residual = 0, Final residual = 0, No Iterations 0
time step continuity errors : sum local = 1.079e-12, global = 3.11355e-13, cumulative = -4.31669e-07
DILUPBiCGStab:  Solving for epsilon, Initial residual = 9.31964e-05, Final residual = 3.35912e-09, No Iterations 1
DILUPBiCGStab:  Solving for k, Initial residual = 0.000108034, Final residual = 4.33317e-09, No Iterations 1
ExecutionTime = 0.76 s  ClockTime = 1 s

Courant Number mean: 0.00801342 max: 0.0318999
Time = 103.2

diagonal:  Solving for rho, Initial residual = 0, Final residual = 0, No Iterations 0
