/*---------------------------------------------------------------------------*\
  =========                 |
  \\      /  F ield         | OpenFOAM: The Open Source CFD Toolbox
   \\    /   O peration     | Website:  https://openfoam.org
    \\  /    A nd           | Version:  6
     \\/     M anipulation  |
\*---------------------------------------------------------------------------*/
Build  : 6-f934eabb0d52
Exec   : buoyantPimpleFoam -case /home/mamitsu/OpenFOAM/mamitsu-6/run/aircond5/Case/case6
Date   : May 15 2019
Time   : 17:26:12
Host   : "mamitsu-desktop"
PID    : 5830
I/O    : uncollated
Case   : /home/mamitsu/OpenFOAM/mamitsu-6/run/aircond5/Case/case6
nProcs : 1
sigFpe : Enabling floating point exception trapping (FOAM_SIGFPE).
fileModificationChecking : Monitoring run-time modified files using timeStampMaster (fileModificationSkew 10)
allowSystemOperations : Allowing user-supplied system call operations

// * * * * * * * * * * * * * * * * * * * * * * * * * * * * * * * * * * * * * //
Create time

Create mesh for time = 100


PIMPLE: No convergence criteria found


PIMPLE: Operating solver in PISO mode

Reading thermophysical properties

Selecting thermodynamics package
{
    type            heRhoThermo;
    mixture         pureMixture;
    transport       const;
    thermo          hConst;
    equationOfState perfectGas;
    specie          specie;
    energy          sensibleEnthalpy;
}

Reading field U

Reading/calculating face flux field phi

Creating turbulence model

Selecting turbulence model type RAS
Selecting RAS turbulence model kEpsilon
RAS
{
    RASModel        kEpsilon;
    turbulence      on;
    printCoeffs     on;
    Cmu             0.09;
    C1              1.44;
    C2              1.92;
    C3              0;
    sigmak          1;
    sigmaEps        1.3;
}


Reading g

Reading hRef
Calculating field g.h

Reading field p_rgh

Creating field dpdt

Creating field kinetic energy K

No MRF models present

Radiation model not active: radiationProperties not found
Selecting radiationModel none
No finite volume options present
Courant Number mean: 0.0056866 max: 0.0270498

Starting time loop

Courant Number mean: 0.0056866 max: 0.0270498
Time = 100.01

diagonal:  Solving for rho, Initial residual = 0, Final residual = 0, No Iterations 0
DILUPBiCGStab:  Solving for Ux, Initial residual = 0.00335199, Final residual = 1.05196e-07, No Iterations 1
DILUPBiCGStab:  Solving for Uy, Initial residual = 0.0729026, Final residual = 8.8711e-07, No Iterations 1
DILUPBiCGStab:  Solving for h, Initial residual = 0.000310856, Final residual = 4.05858e-09, No Iterations 1
DICPCG:  Solving for p_rgh, Initial residual = 0.953025, Final residual = 0.00856893, No Iterations 3
diagonal:  Solving for rho, Initial residual = 0, Final residual = 0, No Iterations 0
time step continuity errors : sum local = 1.08376e-05, global = 1.13976e-06, cumulative = 1.13976e-06
DICPCG:  Solving for p_rgh, Initial residual = 0.11004, Final residual = 6.01973e-09, No Iterations 39
diagonal:  Solving for rho, Initial residual = 0, Final residual = 0, No Iterations 0
time step continuity errors : sum local = 3.24057e-10, global = 3.52787e-11, cumulative = 1.1398e-06
DILUPBiCGStab:  Solving for epsilon, Initial residual = 2.29512e-05, Final residual = 2.949e-10, No Iterations 1
DILUPBiCGStab:  Solving for k, Initial residual = 3.03747e-05, Final residual = 3.55813e-10, No Iterations 1
ExecutionTime = 0.01 s  ClockTime = 0 s

Courant Number mean: 0.0056922 max: 0.0268933
Time = 100.02

diagonal:  Solving for rho, Initial residual = 0, Final residual = 0, No Iterations 0
DILUPBiCGStab:  Solving for Ux, Initial residual = 0.00144, Final residual = 2.95547e-08, No Iterations 1
DILUPBiCGStab:  Solving for Uy, Initial residual = 0.00085186, Final residual = 1.40327e-08, No Iterations 1
DILUPBiCGStab:  Solving for h, Initial residual = 0.000417058, Final residual = 6.25251e-09, No Iterations 1
DICPCG:  Solving for p_rgh, Initial residual = 0.0739762, Final residual = 0.000442856, No Iterations 24
diagonal:  Solving for rho, Initial residual = 0, Final residual = 0, No Iterations 0
time step continuity errors : sum local = 4.24088e-08, global = 1.48238e-10, cumulative = 1.13994e-06
DICPCG:  Solving for p_rgh, Initial residual = 0.000918284, Final residual = 5.90206e-09, No Iterations 35
diagonal:  Solving for rho, Initial residual = 0, Final residual = 0, No Iterations 0
time step continuity errors : sum local = 1.03105e-10, global = 9.13372e-11, cumulative = 1.14004e-06
DILUPBiCGStab:  Solving for epsilon, Initial residual = 2.77962e-05, Final residual = 3.32417e-10, No Iterations 1
DILUPBiCGStab:  Solving for k, Initial residual = 3.2649e-05, Final residual = 3.75253e-10, No Iterations 1
ExecutionTime = 0.01 s  ClockTime = 0 s

Courant Number mean: 0.00569394 max: 0.0269477
Time = 100.03

diagonal:  Solving for rho, Initial residual = 0, Final residual = 0, No Iterations 0
DILUPBiCGStab:  Solving for Ux, Initial residual = 0.000947131, Final residual = 1.21568e-08, No Iterations 1
DILUPBiCGStab:  Solving for Uy, Initial residual = 0.000536541, Final residual = 8.72092e-09, No Iterations 1
DILUPBiCGStab:  Solving for h, Initial residual = 0.000382168, Final residual = 5.12909e-09, No Iterations 1
DICPCG:  Solving for p_rgh, Initial residual = 0.0310197, Final residual = 0.000166674, No Iterations 22
diagonal:  Solving for rho, Initial residual = 0, Final residual = 0, No Iterations 0
time step continuity errors : sum local = 1.61279e-08, global = 1.99309e-10, cumulative = 1.14024e-06
DICPCG:  Solving for p_rgh, Initial residual = 0.000256055, Final residual = 8.26845e-09, No Iterations 32
diagonal:  Solving for rho, Initial residual = 0, Final residual = 0, No Iterations 0
time step continuity errors : sum local = 7.66716e-11, global = 4.90498e-11, cumulative = 1.14028e-06
DILUPBiCGStab:  Solving for epsilon, Initial residual = 3.23869e-05, Final residual = 3.95725e-10, No Iterations 1
DILUPBiCGStab:  Solving for k, Initial residual = 3.46712e-05, Final residual = 4.05826e-10, No Iterations 1
ExecutionTime = 0.02 s  ClockTime = 0 s

Courant Number mean: 0.00569493 max: 0.0269758
Time = 100.04

diagonal:  Solving for rho, Initial residual = 0, Final residual = 0, No Iterations 0
DILUPBiCGStab:  Solving for Ux, Initial residual = 0.000848581, Final residual = 1.54542e-08, No Iterations 1
DILUPBiCGStab:  Solving for Uy, Initial residual = 0.000391571, Final residual = 8.02462e-09, No Iterations 1
DILUPBiCGStab:  Solving for h, Initial residual = 0.000376009, Final residual = 5.24752e-09, No Iterations 1
DICPCG:  Solving for p_rgh, Initial residual = 0.00993261, Final residual = 5.69093e-05, No Iterations 23
diagonal:  Solving for rho, Initial residual = 0, Final residual = 0, No Iterations 0
time step continuity errors : sum local = 5.6802e-09, global = 1.69731e-10, cumulative = 1.14045e-06
DICPCG:  Solving for p_rgh, Initial residual = 9.8384e-05, Final residual = 6.65898e-09, No Iterations 31
diagonal:  Solving for rho, Initial residual = 0, Final residual = 0, No Iterations 0
time step continuity errors : sum local = 3.35025e-11, global = 2.48952e-12, cumulative = 1.14046e-06
DILUPBiCGStab:  Solving for epsilon, Initial residual = 3.77303e-05, Final residual = 4.82233e-10, No Iterations 1
DILUPBiCGStab:  Solving for k, Initial residual = 3.6862e-05, Final residual = 4.51338e-10, No Iterations 1
ExecutionTime = 0.02 s  ClockTime = 0 s

Courant Number mean: 0.00569541 max: 0.0269923
Time = 100.05

diagonal:  Solving for rho, Initial residual = 0, Final residual = 0, No Iterations 0
DILUPBiCGStab:  Solving for Ux, Initial residual = 0.00122594, Final residual = 1.89256e-08, No Iterations 1
DILUPBiCGStab:  Solving for Uy, Initial residual = 0.000333342, Final residual = 5.6644e-09, No Iterations 1
DILUPBiCGStab:  Solving for h, Initial residual = 0.000364654, Final residual = 5.08825e-09, No Iterations 1
DICPCG:  Solving for p_rgh, Initial residual = 0.00642471, Final residual = 4.54163e-05, No Iterations 21
diagonal:  Solving for rho, Initial residual = 0, Final residual = 0, No Iterations 0
time step continuity errors : sum local = 4.57216e-09, global = 1.80014e-10, cumulative = 1.14064e-06
DICPCG:  Solving for p_rgh, Initial residual = 6.23653e-05, Final residual = 6.25274e-09, No Iterations 30
diagonal:  Solving for rho, Initial residual = 0, Final residual = 0, No Iterations 0
time step continuity errors : sum local = 4.31364e-11, global = -4.3136e-11, cumulative = 1.14059e-06
DILUPBiCGStab:  Solving for epsilon, Initial residual = 4.35279e-05, Final residual = 5.80418e-10, No Iterations 1
DILUPBiCGStab:  Solving for k, Initial residual = 3.94832e-05, Final residual = 5.10214e-10, No Iterations 1
ExecutionTime = 0.02 s  ClockTime = 0 s

Courant Number mean: 0.00569587 max: 0.0270053
Time = 100.06

diagonal:  Solving for rho, Initial residual = 0, Final residual = 0, No Iterations 0
DILUPBiCGStab:  Solving for Ux, Initial residual = 0.00107602, Final residual = 1.60674e-08, No Iterations 1
DILUPBiCGStab:  Solving for Uy, Initial residual = 0.000287141, Final residual = 4.98904e-09, No Iterations 1
DILUPBiCGStab:  Solving for h, Initial residual = 0.000393168, Final residual = 5.15231e-09, No Iterations 1
DICPCG:  Solving for p_rgh, Initial residual = 0.00928333, Final residual = 5.70278e-05, No Iterations 21
diagonal:  Solving for rho, Initial residual = 0, Final residual = 0, No Iterations 0
time step continuity errors : sum local = 5.62922e-09, global = 1.84452e-10, cumulative = 1.14078e-06
DICPCG:  Solving for p_rgh, Initial residual = 8.23727e-05, Final residual = 8.81907e-09, No Iterations 30
diagonal:  Solving for rho, Initial residual = 0, Final residual = 0, No Iterations 0
time step continuity errors : sum local = 8.01532e-11, global = -8.01532e-11, cumulative = 1.1407e-06
DILUPBiCGStab:  Solving for epsilon, Initial residual = 4.94364e-05, Final residual = 6.81665e-10, No Iterations 1
DILUPBiCGStab:  Solving for k, Initial residual = 4.22498e-05, Final residual = 5.70713e-10, No Iterations 1
ExecutionTime = 0.02 s  ClockTime = 0 s

Courant Number mean: 0.0056964 max: 0.0270134
Time = 100.07

diagonal:  Solving for rho, Initial residual = 0, Final residual = 0, No Iterations 0
DILUPBiCGStab:  Solving for Ux, Initial residual = 0.000689063, Final residual = 1.06881e-08, No Iterations 1
DILUPBiCGStab:  Solving for Uy, Initial residual = 0.000226686, Final residual = 4.25394e-09, No Iterations 1
DILUPBiCGStab:  Solving for h, Initial residual = 0.000428336, Final residual = 5.4678e-09, No Iterations 1
DICPCG:  Solving for p_rgh, Initial residual = 0.0115913, Final residual = 5.47617e-05, No Iterations 21
diagonal:  Solving for rho, Initial residual = 0, Final residual = 0, No Iterations 0
time step continuity errors : sum local = 5.29429e-09, global = 2.08856e-10, cumulative = 1.14091e-06
DICPCG:  Solving for p_rgh, Initial residual = 8.39964e-05, Final residual = 9.98713e-09, No Iterations 30
diagonal:  Solving for rho, Initial residual = 0, Final residual = 0, No Iterations 0
time step continuity errors : sum local = 1.02271e-10, global = -1.02271e-10, cumulative = 1.1408e-06
DILUPBiCGStab:  Solving for epsilon, Initial residual = 5.52152e-05, Final residual = 7.81345e-10, No Iterations 1
DILUPBiCGStab:  Solving for k, Initial residual = 4.49697e-05, Final residual = 6.31478e-10, No Iterations 1
ExecutionTime = 0.02 s  ClockTime = 0 s

Courant Number mean: 0.00569688 max: 0.0270123
Time = 100.08

diagonal:  Solving for rho, Initial residual = 0, Final residual = 0, No Iterations 0
DILUPBiCGStab:  Solving for Ux, Initial residual = 0.000386943, Final residual = 5.83486e-09, No Iterations 1
DILUPBiCGStab:  Solving for Uy, Initial residual = 0.00015047, Final residual = 2.73789e-09, No Iterations 1
DILUPBiCGStab:  Solving for h, Initial residual = 0.000450331, Final residual = 5.82821e-09, No Iterations 1
DICPCG:  Solving for p_rgh, Initial residual = 0.0126019, Final residual = 0.000109301, No Iterations 20
diagonal:  Solving for rho, Initial residual = 0, Final residual = 0, No Iterations 0
time step continuity errors : sum local = 1.01205e-08, global = 3.29038e-11, cumulative = 1.14084e-06
DICPCG:  Solving for p_rgh, Initial residual = 0.000132395, Final residual = 8.57305e-09, No Iterations 31
diagonal:  Solving for rho, Initial residual = 0, Final residual = 0, No Iterations 0
time step continuity errors : sum local = 1.06051e-10, global = -1.06051e-10, cumulative = 1.14073e-06
DILUPBiCGStab:  Solving for epsilon, Initial residual = 6.07834e-05, Final residual = 8.79277e-10, No Iterations 1
DILUPBiCGStab:  Solving for k, Initial residual = 4.75348e-05, Final residual = 6.91403e-10, No Iterations 1
ExecutionTime = 0.03 s  ClockTime = 0 s

Courant Number mean: 0.00569713 max: 0.0269993
Time = 100.09

diagonal:  Solving for rho, Initial residual = 0, Final residual = 0, No Iterations 0
DILUPBiCGStab:  Solving for Ux, Initial residual = 0.000404072, Final residual = 5.74393e-09, No Iterations 1
DILUPBiCGStab:  Solving for Uy, Initial residual = 0.000106051, Final residual = 1.49796e-09, No Iterations 1
DILUPBiCGStab:  Solving for h, Initial residual = 0.000455244, Final residual = 6.00792e-09, No Iterations 1
DICPCG:  Solving for p_rgh, Initial residual = 0.0114637, Final residual = 9.35483e-05, No Iterations 20
diagonal:  Solving for rho, Initial residual = 0, Final residual = 0, No Iterations 0
time step continuity errors : sum local = 8.74553e-09, global = -3.09038e-11, cumulative = 1.1407e-06
DICPCG:  Solving for p_rgh, Initial residual = 0.000113652, Final residual = 7.24113e-09, No Iterations 31
diagonal:  Solving for rho, Initial residual = 0, Final residual = 0, No Iterations 0
time step continuity errors : sum local = 9.22748e-11, global = -9.22748e-11, cumulative = 1.14061e-06
DILUPBiCGStab:  Solving for epsilon, Initial residual = 6.61395e-05, Final residual = 9.76794e-10, No Iterations 1
DILUPBiCGStab:  Solving for k, Initial residual = 4.99404e-05, Final residual = 7.50414e-10, No Iterations 1
ExecutionTime = 0.03 s  ClockTime = 0 s

Courant Number mean: 0.00569715 max: 0.0269754
Time = 100.1

diagonal:  Solving for rho, Initial residual = 0, Final residual = 0, No Iterations 0
DILUPBiCGStab:  Solving for Ux, Initial residual = 0.000505733, Final residual = 8.09254e-09, No Iterations 1
DILUPBiCGStab:  Solving for Uy, Initial residual = 0.000127568, Final residual = 2.30118e-09, No Iterations 1
DILUPBiCGStab:  Solving for h, Initial residual = 0.000443489, Final residual = 5.919e-09, No Iterations 1
DICPCG:  Solving for p_rgh, Initial residual = 0.0088384, Final residual = 8.06569e-05, No Iterations 20
diagonal:  Solving for rho, Initial residual = 0, Final residual = 0, No Iterations 0
time step continuity errors : sum local = 7.73904e-09, global = 3.77836e-12, cumulative = 1.14061e-06
DICPCG:  Solving for p_rgh, Initial residual = 9.35696e-05, Final residual = 5.37925e-09, No Iterations 31
diagonal:  Solving for rho, Initial residual = 0, Final residual = 0, No Iterations 0
time step continuity errors : sum local = 6.5418e-11, global = -6.5418e-11, cumulative = 1.14055e-06
DILUPBiCGStab:  Solving for epsilon, Initial residual = 7.13697e-05, Final residual = 1.07552e-09, No Iterations 1
DILUPBiCGStab:  Solving for k, Initial residual = 5.22619e-05, Final residual = 8.10078e-10, No Iterations 1
ExecutionTime = 0.03 s  ClockTime = 0 s

Courant Number mean: 0.00569699 max: 0.026944
Time = 100.11

diagonal:  Solving for rho, Initial residual = 0, Final residual = 0, No Iterations 0
DILUPBiCGStab:  Solving for Ux, Initial residual = 0.000594681, Final residual = 9.86473e-09, No Iterations 1
DILUPBiCGStab:  Solving for Uy, Initial residual = 0.000174968, Final residual = 3.28394e-09, No Iterations 1
DILUPBiCGStab:  Solving for h, Initial residual = 0.000419402, Final residual = 5.62488e-09, No Iterations 1
DICPCG:  Solving for p_rgh, Initial residual = 0.0056293, Final residual = 5.03456e-05, No Iterations 16
diagonal:  Solving for rho, Initial residual = 0, Final residual = 0, No Iterations 0
time step continuity errors : sum local = 5.06421e-09, global = 6.6769e-11, cumulative = 1.14061e-06
DICPCG:  Solving for p_rgh, Initial residual = 6.17123e-05, Final residual = 5.7301e-09, No Iterations 30
diagonal:  Solving for rho, Initial residual = 0, Final residual = 0, No Iterations 0
time step continuity errors : sum local = 3.17803e-11, global = -3.17781e-11, cumulative = 1.14058e-06
DILUPBiCGStab:  Solving for epsilon, Initial residual = 7.65981e-05, Final residual = 1.1778e-09, No Iterations 1
DILUPBiCGStab:  Solving for k, Initial residual = 5.45903e-05, Final residual = 8.72143e-10, No Iterations 1
ExecutionTime = 0.03 s  ClockTime = 0 s

Courant Number mean: 0.00569677 max: 0.0269087
Time = 100.12

diagonal:  Solving for rho, Initial residual = 0, Final residual = 0, No Iterations 0
DILUPBiCGStab:  Solving for Ux, Initial residual = 0.000649291, Final residual = 1.07951e-08, No Iterations 1
DILUPBiCGStab:  Solving for Uy, Initial residual = 0.000196436, Final residual = 3.63432e-09, No Iterations 1
DILUPBiCGStab:  Solving for h, Initial residual = 0.000389083, Final residual = 5.25384e-09, No Iterations 1
DICPCG:  Solving for p_rgh, Initial residual = 0.00304947, Final residual = 2.4255e-05, No Iterations 20
diagonal:  Solving for rho, Initial residual = 0, Final residual = 0, No Iterations 0
time step continuity errors : sum local = 2.52185e-09, global = 1.22755e-10, cumulative = 1.1407e-06
DICPCG:  Solving for p_rgh, Initial residual = 3.68405e-05, Final residual = 7.79165e-09, No Iterations 29
diagonal:  Solving for rho, Initial residual = 0, Final residual = 0, No Iterations 0
time step continuity errors : sum local = 2.55095e-12, global = 2.36927e-12, cumulative = 1.14071e-06
DILUPBiCGStab:  Solving for epsilon, Initial residual = 8.19663e-05, Final residual = 1.28701e-09, No Iterations 1
DILUPBiCGStab:  Solving for k, Initial residual = 5.70117e-05, Final residual = 9.37533e-10, No Iterations 1
ExecutionTime = 0.04 s  ClockTime = 1 s

Courant Number mean: 0.00569653 max: 0.026873
Time = 100.13

diagonal:  Solving for rho, Initial residual = 0, Final residual = 0, No Iterations 0
DILUPBiCGStab:  Solving for Ux, Initial residual = 0.000643403, Final residual = 1.0621e-08, No Iterations 1
DILUPBiCGStab:  Solving for Uy, Initial residual = 0.00019155, Final residual = 3.45498e-09, No Iterations 1
DILUPBiCGStab:  Solving for h, Initial residual = 0.000362088, Final residual = 4.94404e-09, No Iterations 1
DICPCG:  Solving for p_rgh, Initial residual = 0.00505471, Final residual = 4.8891e-05, No Iterations 18
diagonal:  Solving for rho, Initial residual = 0, Final residual = 0, No Iterations 0
time step continuity errors : sum local = 4.9786e-09, global = 2.81927e-10, cumulative = 1.14099e-06
DICPCG:  Solving for p_rgh, Initial residual = 6.4937e-05, Final residual = 9.44507e-09, No Iterations 29
diagonal:  Solving for rho, Initial residual = 0, Final residual = 0, No Iterations 0
time step continuity errors : sum local = 3.17241e-11, global = 3.17171e-11, cumulative = 1.14102e-06
DILUPBiCGStab:  Solving for epsilon, Initial residual = 8.7489e-05, Final residual = 1.40093e-09, No Iterations 1
DILUPBiCGStab:  Solving for k, Initial residual = 5.9502e-05, Final residual = 1.00611e-09, No Iterations 1
ExecutionTime = 0.04 s  ClockTime = 1 s

Courant Number mean: 0.00569631 max: 0.0268391
Time = 100.14

diagonal:  Solving for rho, Initial residual = 0, Final residual = 0, No Iterations 0
DILUPBiCGStab:  Solving for Ux, Initial residual = 0.000570174, Final residual = 9.3209e-09, No Iterations 1
DILUPBiCGStab:  Solving for Uy, Initial residual = 0.000161108, Final residual = 2.90742e-09, No Iterations 1
DILUPBiCGStab:  Solving for h, Initial residual = 0.000356286, Final residual = 4.90022e-09, No Iterations 1
DICPCG:  Solving for p_rgh, Initial residual = 0.00656959, Final residual = 6.0686e-05, No Iterations 20
diagonal:  Solving for rho, Initial residual = 0, Final residual = 0, No Iterations 0
time step continuity errors : sum local = 6.12815e-09, global = 2.60105e-10, cumulative = 1.14128e-06
DICPCG:  Solving for p_rgh, Initial residual = 7.79884e-05, Final residual = 4.2431e-09, No Iterations 31
diagonal:  Solving for rho, Initial residual = 0, Final residual = 0, No Iterations 0
time step continuity errors : sum local = 5.24408e-11, global = 5.24408e-11, cumulative = 1.14133e-06
DILUPBiCGStab:  Solving for epsilon, Initial residual = 9.31764e-05, Final residual = 1.51882e-09, No Iterations 1
DILUPBiCGStab:  Solving for k, Initial residual = 6.20824e-05, Final residual = 1.07844e-09, No Iterations 1
ExecutionTime = 0.04 s  ClockTime = 1 s

Courant Number mean: 0.00569611 max: 0.0268085
Time = 100.15

diagonal:  Solving for rho, Initial residual = 0, Final residual = 0, No Iterations 0
DILUPBiCGStab:  Solving for Ux, Initial residual = 0.000451656, Final residual = 7.30645e-09, No Iterations 1
DILUPBiCGStab:  Solving for Uy, Initial residual = 0.000129264, Final residual = 2.26636e-09, No Iterations 1
DILUPBiCGStab:  Solving for h, Initial residual = 0.000362562, Final residual = 5.03361e-09, No Iterations 1
DICPCG:  Solving for p_rgh, Initial residual = 0.00764833, Final residual = 4.21711e-05, No Iterations 21
diagonal:  Solving for rho, Initial residual = 0, Final residual = 0, No Iterations 0
time step continuity errors : sum local = 4.25443e-09, global = 1.90547e-10, cumulative = 1.14152e-06
DICPCG:  Solving for p_rgh, Initial residual = 6.39943e-05, Final residual = 6.24574e-09, No Iterations 30
diagonal:  Solving for rho, Initial residual = 0, Final residual = 0, No Iterations 0
time step continuity errors : sum local = 6.24354e-11, global = 6.24354e-11, cumulative = 1.14159e-06
DILUPBiCGStab:  Solving for epsilon, Initial residual = 9.89112e-05, Final residual = 1.63819e-09, No Iterations 1
DILUPBiCGStab:  Solving for k, Initial residual = 6.48389e-05, Final residual = 1.1534e-09, No Iterations 1
ExecutionTime = 0.04 s  ClockTime = 1 s

Courant Number mean: 0.00569594 max: 0.026782
Time = 100.16

diagonal:  Solving for rho, Initial residual = 0, Final residual = 0, No Iterations 0
DILUPBiCGStab:  Solving for Ux, Initial residual = 0.000330151, Final residual = 5.19937e-09, No Iterations 1
DILUPBiCGStab:  Solving for Uy, Initial residual = 0.000115083, Final residual = 2.30842e-09, No Iterations 1
DILUPBiCGStab:  Solving for h, Initial residual = 0.000369188, Final residual = 5.17309e-09, No Iterations 1
DICPCG:  Solving for p_rgh, Initial residual = 0.00779399, Final residual = 6.95098e-05, No Iterations 19
diagonal:  Solving for rho, Initial residual = 0, Final residual = 0, No Iterations 0
time step continuity errors : sum local = 6.75486e-09, global = 3.03989e-10, cumulative = 1.14189e-06
DICPCG:  Solving for p_rgh, Initial residual = 8.4944e-05, Final residual = 9.59784e-09, No Iterations 30
diagonal:  Solving for rho, Initial residual = 0, Final residual = 0, No Iterations 0
time step continuity errors : sum local = 6.14455e-11, global = 6.14455e-11, cumulative = 1.14195e-06
DILUPBiCGStab:  Solving for epsilon, Initial residual = 0.000104672, Final residual = 1.7561e-09, No Iterations 1
DILUPBiCGStab:  Solving for k, Initial residual = 6.76419e-05, Final residual = 1.22753e-09, No Iterations 1
ExecutionTime = 0.05 s  ClockTime = 1 s

Courant Number mean: 0.0056958 max: 0.0267596
Time = 100.17

diagonal:  Solving for rho, Initial residual = 0, Final residual = 0, No Iterations 0
DILUPBiCGStab:  Solving for Ux, Initial residual = 0.000325934, Final residual = 5.28692e-09, No Iterations 1
DILUPBiCGStab:  Solving for Uy, Initial residual = 0.000125178, Final residual = 2.8603e-09, No Iterations 1
DILUPBiCGStab:  Solving for h, Initial residual = 0.00037077, Final residual = 5.21319e-09, No Iterations 1
DICPCG:  Solving for p_rgh, Initial residual = 0.00703482, Final residual = 5.70287e-05, No Iterations 16
diagonal:  Solving for rho, Initial residual = 0, Final residual = 0, No Iterations 0
time step continuity errors : sum local = 5.48027e-09, global = 7.07558e-11, cumulative = 1.14202e-06
DICPCG:  Solving for p_rgh, Initial residual = 6.90339e-05, Final residual = 6.76568e-09, No Iterations 30
diagonal:  Solving for rho, Initial residual = 0, Final residual = 0, No Iterations 0
time step continuity errors : sum local = 5.09942e-11, global = 5.09942e-11, cumulative = 1.14207e-06
DILUPBiCGStab:  Solving for epsilon, Initial residual = 0.000110466, Final residual = 1.87222e-09, No Iterations 1
DILUPBiCGStab:  Solving for k, Initial residual = 7.04186e-05, Final residual = 1.30112e-09, No Iterations 1
ExecutionTime = 0.05 s  ClockTime = 1 s

Courant Number mean: 0.00569569 max: 0.0267402
Time = 100.18

diagonal:  Solving for rho, Initial residual = 0, Final residual = 0, No Iterations 0
DILUPBiCGStab:  Solving for Ux, Initial residual = 0.000401255, Final residual = 6.67799e-09, No Iterations 1
DILUPBiCGStab:  Solving for Uy, Initial residual = 0.000153928, Final residual = 3.50297e-09, No Iterations 1
DILUPBiCGStab:  Solving for h, Initial residual = 0.000367895, Final residual = 5.15959e-09, No Iterations 1
DICPCG:  Solving for p_rgh, Initial residual = 0.00551059, Final residual = 4.73276e-05, No Iterations 19
diagonal:  Solving for rho, Initial residual = 0, Final residual = 0, No Iterations 0
time step continuity errors : sum local = 4.53091e-09, global = 1.22731e-11, cumulative = 1.14209e-06
DICPCG:  Solving for p_rgh, Initial residual = 5.82415e-05, Final residual = 9.73892e-09, No Iterations 29
diagonal:  Solving for rho, Initial residual = 0, Final residual = 0, No Iterations 0
time step continuity errors : sum local = 3.37821e-11, global = 3.37782e-11, cumulative = 1.14212e-06
DILUPBiCGStab:  Solving for epsilon, Initial residual = 0.000116339, Final residual = 1.98792e-09, No Iterations 1
DILUPBiCGStab:  Solving for k, Initial residual = 7.32137e-05, Final residual = 1.37466e-09, No Iterations 1
ExecutionTime = 0.05 s  ClockTime = 1 s

Courant Number mean: 0.00569558 max: 0.0267224
Time = 100.19

diagonal:  Solving for rho, Initial residual = 0, Final residual = 0, No Iterations 0
DILUPBiCGStab:  Solving for Ux, Initial residual = 0.000453237, Final residual = 7.5981e-09, No Iterations 1
DILUPBiCGStab:  Solving for Uy, Initial residual = 0.000176638, Final residual = 3.99403e-09, No Iterations 1
DILUPBiCGStab:  Solving for h, Initial residual = 0.00036579, Final residual = 5.10921e-09, No Iterations 1
DICPCG:  Solving for p_rgh, Initial residual = 0.00360232, Final residual = 2.87833e-05, No Iterations 21
diagonal:  Solving for rho, Initial residual = 0, Final residual = 0, No Iterations 0
time step continuity errors : sum local = 2.84806e-09, global = 1.34526e-10, cumulative = 1.14225e-06
DICPCG:  Solving for p_rgh, Initial residual = 4.03976e-05, Final residual = 5.61534e-09, No Iterations 29
diagonal:  Solving for rho, Initial residual = 0, Final residual = 0, No Iterations 0
time step continuity errors : sum local = 1.34505e-11, global = 1.34461e-11, cumulative = 1.14227e-06
DILUPBiCGStab:  Solving for epsilon, Initial residual = 0.000122242, Final residual = 2.10395e-09, No Iterations 1
DILUPBiCGStab:  Solving for k, Initial residual = 7.60292e-05, Final residual = 1.4478e-09, No Iterations 1
ExecutionTime = 0.05 s  ClockTime = 1 s

Courant Number mean: 0.00569547 max: 0.0267044
Time = 100.2

diagonal:  Solving for rho, Initial residual = 0, Final residual = 0, No Iterations 0
DILUPBiCGStab:  Solving for Ux, Initial residual = 0.000467594, Final residual = 7.86855e-09, No Iterations 1
DILUPBiCGStab:  Solving for Uy, Initial residual = 0.00018782, Final residual = 4.21518e-09, No Iterations 1
DILUPBiCGStab:  Solving for h, Initial residual = 0.000370293, Final residual = 5.16552e-09, No Iterations 1
DICPCG:  Solving for p_rgh, Initial residual = 0.00290834, Final residual = 2.38656e-05, No Iterations 21
diagonal:  Solving for rho, Initial residual = 0, Final residual = 0, No Iterations 0
time step continuity errors : sum local = 2.40102e-09, global = 1.55566e-10, cumulative = 1.14242e-06
DICPCG:  Solving for p_rgh, Initial residual = 3.54838e-05, Final residual = 7.76033e-09, No Iterations 29
diagonal:  Solving for rho, Initial residual = 0, Final residual = 0, No Iterations 0
time step continuity errors : sum local = 6.61624e-12, global = -6.50007e-12, cumulative = 1.14242e-06
DILUPBiCGStab:  Solving for epsilon, Initial residual = 0.000128122, Final residual = 2.21969e-09, No Iterations 1
DILUPBiCGStab:  Solving for k, Initial residual = 7.88548e-05, Final residual = 1.52146e-09, No Iterations 1
ExecutionTime = 0.06 s  ClockTime = 1 s

Courant Number mean: 0.00569531 max: 0.0266845
Time = 100.21

diagonal:  Solving for rho, Initial residual = 0, Final residual = 0, No Iterations 0
DILUPBiCGStab:  Solving for Ux, Initial residual = 0.000444967, Final residual = 7.51738e-09, No Iterations 1
DILUPBiCGStab:  Solving for Uy, Initial residual = 0.000186273, Final residual = 4.16556e-09, No Iterations 1
DILUPBiCGStab:  Solving for h, Initial residual = 0.000382503, Final residual = 5.32703e-09, No Iterations 1
DICPCG:  Solving for p_rgh, Initial residual = 0.00411514, Final residual = 3.56818e-05, No Iterations 17
diagonal:  Solving for rho, Initial residual = 0, Final residual = 0, No Iterations 0
time step continuity errors : sum local = 3.48912e-09, global = 1.36906e-10, cumulative = 1.14255e-06
DICPCG:  Solving for p_rgh, Initial residual = 4.71478e-05, Final residual = 5.13076e-09, No Iterations 30
diagonal:  Solving for rho, Initial residual = 0, Final residual = 0, No Iterations 0
time step continuity errors : sum local = 2.29556e-11, global = -2.29403e-11, cumulative = 1.14253e-06
DILUPBiCGStab:  Solving for epsilon, Initial residual = 0.000133907, Final residual = 2.3349e-09, No Iterations 1
DILUPBiCGStab:  Solving for k, Initial residual = 8.16629e-05, Final residual = 1.59501e-09, No Iterations 1
ExecutionTime = 0.06 s  ClockTime = 1 s

Courant Number mean: 0.0056951 max: 0.0266614
Time = 100.22

diagonal:  Solving for rho, Initial residual = 0, Final residual = 0, No Iterations 0
DILUPBiCGStab:  Solving for Ux, Initial residual = 0.000394188, Final residual = 6.69306e-09, No Iterations 1
DILUPBiCGStab:  Solving for Uy, Initial residual = 0.00017665, Final residual = 3.93481e-09, No Iterations 1
DILUPBiCGStab:  Solving for h, Initial residual = 0.000398602, Final residual = 5.52051e-09, No Iterations 1
DICPCG:  Solving for p_rgh, Initial residual = 0.00495722, Final residual = 3.79278e-05, No Iterations 19
diagonal:  Solving for rho, Initial residual = 0, Final residual = 0, No Iterations 0
time step continuity errors : sum local = 3.68655e-09, global = 1.02646e-10, cumulative = 1.14263e-06
DICPCG:  Solving for p_rgh, Initial residual = 5.19525e-05, Final residual = 7.57535e-09, No Iterations 30
diagonal:  Solving for rho, Initial residual = 0, Final residual = 0, No Iterations 0
time step continuity errors : sum local = 3.37821e-11, global = -3.3776e-11, cumulative = 1.1426e-06
DILUPBiCGStab:  Solving for epsilon, Initial residual = 0.00013957, Final residual = 2.44924e-09, No Iterations 1
DILUPBiCGStab:  Solving for k, Initial residual = 8.44402e-05, Final residual = 1.66844e-09, No Iterations 1
ExecutionTime = 0.06 s  ClockTime = 1 s

Courant Number mean: 0.00569481 max: 0.0266343
Time = 100.23

diagonal:  Solving for rho, Initial residual = 0, Final residual = 0, No Iterations 0
DILUPBiCGStab:  Solving for Ux, Initial residual = 0.00033157, Final residual = 5.63245e-09, No Iterations 1
DILUPBiCGStab:  Solving for Uy, Initial residual = 0.000162447, Final residual = 3.64122e-09, No Iterations 1
DILUPBiCGStab:  Solving for h, Initial residual = 0.000410436, Final residual = 5.66382e-09, No Iterations 1
DICPCG:  Solving for p_rgh, Initial residual = 0.0054073, Final residual = 4.41179e-05, No Iterations 19
diagonal:  Solving for rho, Initial residual = 0, Final residual = 0, No Iterations 0
time step continuity errors : sum local = 4.28341e-09, global = 8.15872e-11, cumulative = 1.14268e-06
DICPCG:  Solving for p_rgh, Initial residual = 5.69538e-05, Final residual = 8.07638e-09, No Iterations 30
diagonal:  Solving for rho, Initial residual = 0, Final residual = 0, No Iterations 0
time step continuity errors : sum local = 3.79687e-11, global = -3.79637e-11, cumulative = 1.14264e-06
DILUPBiCGStab:  Solving for epsilon, Initial residual = 0.000145094, Final residual = 2.563e-09, No Iterations 1
DILUPBiCGStab:  Solving for k, Initial residual = 8.71733e-05, Final residual = 1.74173e-09, No Iterations 1
ExecutionTime = 0.06 s  ClockTime = 1 s

Courant Number mean: 0.00569445 max: 0.0266031
Time = 100.24

diagonal:  Solving for rho, Initial residual = 0, Final residual = 0, No Iterations 0
DILUPBiCGStab:  Solving for Ux, Initial residual = 0.000285186, Final residual = 4.73794e-09, No Iterations 1
DILUPBiCGStab:  Solving for Uy, Initial residual = 0.000151534, Final residual = 3.38017e-09, No Iterations 1
DILUPBiCGStab:  Solving for h, Initial residual = 0.000416234, Final residual = 5.74114e-09, No Iterations 1
DICPCG:  Solving for p_rgh, Initial residual = 0.00521177, Final residual = 5.18238e-05, No Iterations 17
diagonal:  Solving for rho, Initial residual = 0, Final residual = 0, No Iterations 0
time step continuity errors : sum local = 4.98537e-09, global = -1.51823e-10, cumulative = 1.14249e-06
DICPCG:  Solving for p_rgh, Initial residual = 6.28868e-05, Final residual = 7.35112e-09, No Iterations 30
diagonal:  Solving for rho, Initial residual = 0, Final residual = 0, No Iterations 0
time step continuity errors : sum local = 3.56974e-11, global = -3.56968e-11, cumulative = 1.14245e-06
DILUPBiCGStab:  Solving for epsilon, Initial residual = 0.000150482, Final residual = 2.6763e-09, No Iterations 1
DILUPBiCGStab:  Solving for k, Initial residual = 8.98636e-05, Final residual = 1.81507e-09, No Iterations 1
ExecutionTime = 0.06 s  ClockTime = 1 s

Courant Number mean: 0.00569402 max: 0.0265681
Time = 100.25

diagonal:  Solving for rho, Initial residual = 0, Final residual = 0, No Iterations 0
DILUPBiCGStab:  Solving for Ux, Initial residual = 0.000303485, Final residual = 5.0374e-09, No Iterations 1
DILUPBiCGStab:  Solving for Uy, Initial residual = 0.000147752, Final residual = 3.22757e-09, No Iterations 1
DILUPBiCGStab:  Solving for h, Initial residual = 0.000416149, Final residual = 5.75445e-09, No Iterations 1
DICPCG:  Solving for p_rgh, Initial residual = 0.00450644, Final residual = 4.22618e-05, No Iterations 15
diagonal:  Solving for rho, Initial residual = 0, Final residual = 0, No Iterations 0
time step continuity errors : sum local = 4.22023e-09, global = 1.12803e-10, cumulative = 1.14257e-06
DICPCG:  Solving for p_rgh, Initial residual = 5.18748e-05, Final residual = 7.92765e-09, No Iterations 29
diagonal:  Solving for rho, Initial residual = 0, Final residual = 0, No Iterations 0
time step continuity errors : sum local = 2.81223e-11, global = -2.81209e-11, cumulative = 1.14254e-06
DILUPBiCGStab:  Solving for epsilon, Initial residual = 0.000155749, Final residual = 2.78945e-09, No Iterations 1
DILUPBiCGStab:  Solving for k, Initial residual = 9.25092e-05, Final residual = 1.88829e-09, No Iterations 1
ExecutionTime = 0.07 s  ClockTime = 1 s

Courant Number mean: 0.00569354 max: 0.02653
Time = 100.26

diagonal:  Solving for rho, Initial residual = 0, Final residual = 0, No Iterations 0
DILUPBiCGStab:  Solving for Ux, Initial residual = 0.000341335, Final residual = 5.75308e-09, No Iterations 1
DILUPBiCGStab:  Solving for Uy, Initial residual = 0.00014989, Final residual = 3.17782e-09, No Iterations 1
DILUPBiCGStab:  Solving for h, Initial residual = 0.000411259, Final residual = 5.71516e-09, No Iterations 1
DICPCG:  Solving for p_rgh, Initial residual = 0.0034811, Final residual = 3.15125e-05, No Iterations 15
diagonal:  Solving for rho, Initial residual = 0, Final residual = 0, No Iterations 0
time step continuity errors : sum local = 3.21937e-09, global = 3.0407e-10, cumulative = 1.14284e-06
DICPCG:  Solving for p_rgh, Initial residual = 4.00698e-05, Final residual = 6.62703e-09, No Iterations 29
diagonal:  Solving for rho, Initial residual = 0, Final residual = 0, No Iterations 0
time step continuity errors : sum local = 1.70387e-11, global = -1.70349e-11, cumulative = 1.14283e-06
DILUPBiCGStab:  Solving for epsilon, Initial residual = 0.00016092, Final residual = 2.90683e-09, No Iterations 1
DILUPBiCGStab:  Solving for k, Initial residual = 9.5113e-05, Final residual = 1.96337e-09, No Iterations 1
ExecutionTime = 0.07 s  ClockTime = 1 s

Courant Number mean: 0.00569303 max: 0.02649
Time = 100.27

diagonal:  Solving for rho, Initial residual = 0, Final residual = 0, No Iterations 0
DILUPBiCGStab:  Solving for Ux, Initial residual = 0.000363088, Final residual = 6.19302e-09, No Iterations 1
DILUPBiCGStab:  Solving for Uy, Initial residual = 0.000154258, Final residual = 3.20515e-09, No Iterations 1
DILUPBiCGStab:  Solving for h, Initial residual = 0.000403182, Final residual = 5.64264e-09, No Iterations 1
DICPCG:  Solving for p_rgh, Initial residual = 0.00233724, Final residual = 2.04249e-05, No Iterations 19
diagonal:  Solving for rho, Initial residual = 0, Final residual = 0, No Iterations 0
time step continuity errors : sum local = 2.12896e-09, global = 1.92264e-10, cumulative = 1.14302e-06
DICPCG:  Solving for p_rgh, Initial residual = 2.99255e-05, Final residual = 8.02273e-09, No Iterations 28
diagonal:  Solving for rho, Initial residual = 0, Final residual = 0, No Iterations 0
time step continuity errors : sum local = 4.7032e-12, global = -4.60606e-12, cumulative = 1.14301e-06
DILUPBiCGStab:  Solving for epsilon, Initial residual = 0.000166068, Final residual = 3.03499e-09, No Iterations 1
DILUPBiCGStab:  Solving for k, Initial residual = 9.76757e-05, Final residual = 2.04485e-09, No Iterations 1
ExecutionTime = 0.07 s  ClockTime = 1 s

Courant Number mean: 0.00569256 max: 0.0264493
Time = 100.28

diagonal:  Solving for rho, Initial residual = 0, Final residual = 0, No Iterations 0
DILUPBiCGStab:  Solving for Ux, Initial residual = 0.000363903, Final residual = 6.24211e-09, No Iterations 1
DILUPBiCGStab:  Solving for Uy, Initial residual = 0.000156765, Final residual = 3.26478e-09, No Iterations 1
DILUPBiCGStab:  Solving for h, Initial residual = 0.000394841, Final residual = 5.56671e-09, No Iterations 1
DICPCG:  Solving for p_rgh, Initial residual = 0.00244606, Final residual = 1.71516e-05, No Iterations 18
diagonal:  Solving for rho, Initial residual = 0, Final residual = 0, No Iterations 0
time step continuity errors : sum local = 1.81438e-09, global = 2.02918e-10, cumulative = 1.14322e-06
DICPCG:  Solving for p_rgh, Initial residual = 2.70477e-05, Final residual = 5.67262e-09, No Iterations 27
diagonal:  Solving for rho, Initial residual = 0, Final residual = 0, No Iterations 0
time step continuity errors : sum local = 7.08336e-12, global = 7.04791e-12, cumulative = 1.14322e-06
DILUPBiCGStab:  Solving for epsilon, Initial residual = 0.000171217, Final residual = 3.16327e-09, No Iterations 1
DILUPBiCGStab:  Solving for k, Initial residual = 0.000100248, Final residual = 2.13088e-09, No Iterations 1
ExecutionTime = 0.07 s  ClockTime = 1 s

Courant Number mean: 0.00569209 max: 0.0264087
Time = 100.29

diagonal:  Solving for rho, Initial residual = 0, Final residual = 0, No Iterations 0
DILUPBiCGStab:  Solving for Ux, Initial residual = 0.000344982, Final residual = 5.93304e-09, No Iterations 1
DILUPBiCGStab:  Solving for Uy, Initial residual = 0.000157516, Final residual = 3.34364e-09, No Iterations 1
DILUPBiCGStab:  Solving for h, Initial residual = 0.000390226, Final residual = 5.52648e-09, No Iterations 1
DICPCG:  Solving for p_rgh, Initial residual = 0.00305685, Final residual = 3.02184e-05, No Iterations 18
diagonal:  Solving for rho, Initial residual = 0, Final residual = 0, No Iterations 0
time step continuity errors : sum local = 3.06306e-09, global = 2.47903e-10, cumulative = 1.14347e-06
DICPCG:  Solving for p_rgh, Initial residual = 3.96558e-05, Final residual = 6.26008e-09, No Iterations 29
diagonal:  Solving for rho, Initial residual = 0, Final residual = 0, No Iterations 0
time step continuity errors : sum local = 1.6231e-11, global = 1.62295e-11, cumulative = 1.14349e-06
DILUPBiCGStab:  Solving for epsilon, Initial residual = 0.000176286, Final residual = 3.29162e-09, No Iterations 1
DILUPBiCGStab:  Solving for k, Initial residual = 0.000102897, Final residual = 2.21635e-09, No Iterations 1
ExecutionTime = 0.08 s  ClockTime = 1 s

Courant Number mean: 0.00569162 max: 0.0263693
Time = 100.3

diagonal:  Solving for rho, Initial residual = 0, Final residual = 0, No Iterations 0
DILUPBiCGStab:  Solving for Ux, Initial residual = 0.000313311, Final residual = 5.39654e-09, No Iterations 1
DILUPBiCGStab:  Solving for Uy, Initial residual = 0.000157413, Final residual = 3.45621e-09, No Iterations 1
DILUPBiCGStab:  Solving for h, Initial residual = 0.00038893, Final residual = 5.53134e-09, No Iterations 1
DICPCG:  Solving for p_rgh, Initial residual = 0.0035339, Final residual = 3.1247e-05, No Iterations 18
diagonal:  Solving for rho, Initial residual = 0, Final residual = 0, No Iterations 0
time step continuity errors : sum local = 3.15951e-09, global = 2.8332e-10, cumulative = 1.14377e-06
DICPCG:  Solving for p_rgh, Initial residual = 4.12702e-05, Final residual = 6.93322e-09, No Iterations 29
diagonal:  Solving for rho, Initial residual = 0, Final residual = 0, No Iterations 0
time step continuity errors : sum local = 2.18041e-11, global = 2.18041e-11, cumulative = 1.14379e-06
DILUPBiCGStab:  Solving for epsilon, Initial residual = 0.000181272, Final residual = 3.41978e-09, No Iterations 1
DILUPBiCGStab:  Solving for k, Initial residual = 0.000105523, Final residual = 2.3009e-09, No Iterations 1
ExecutionTime = 0.08 s  ClockTime = 1 s

Courant Number mean: 0.00569119 max: 0.0263314
Time = 100.31

diagonal:  Solving for rho, Initial residual = 0, Final residual = 0, No Iterations 0
DILUPBiCGStab:  Solving for Ux, Initial residual = 0.000278145, Final residual = 4.79025e-09, No Iterations 1
DILUPBiCGStab:  Solving for Uy, Initial residual = 0.000157158, Final residual = 3.60196e-09, No Iterations 1
DILUPBiCGStab:  Solving for h, Initial residual = 0.000389554, Final residual = 5.55859e-09, No Iterations 1
DICPCG:  Solving for p_rgh, Initial residual = 0.003716, Final residual = 2.39013e-05, No Iterations 17
diagonal:  Solving for rho, Initial residual = 0, Final residual = 0, No Iterations 0
time step continuity errors : sum local = 2.47255e-09, global = 3.11744e-10, cumulative = 1.14411e-06
DICPCG:  Solving for p_rgh, Initial residual = 3.46532e-05, Final residual = 7.42701e-09, No Iterations 29
diagonal:  Solving for rho, Initial residual = 0, Final residual = 0, No Iterations 0
time step continuity errors : sum local = 2.33974e-11, global = 2.33865e-11, cumulative = 1.14413e-06
DILUPBiCGStab:  Solving for epsilon, Initial residual = 0.000186171, Final residual = 3.55099e-09, No Iterations 1
DILUPBiCGStab:  Solving for k, Initial residual = 0.00010807, Final residual = 2.38435e-09, No Iterations 1
ExecutionTime = 0.08 s  ClockTime = 1 s

Courant Number mean: 0.00569078 max: 0.0262951
Time = 100.32

diagonal:  Solving for rho, Initial residual = 0, Final residual = 0, No Iterations 0
DILUPBiCGStab:  Solving for Ux, Initial residual = 0.000257329, Final residual = 4.43241e-09, No Iterations 1
DILUPBiCGStab:  Solving for Uy, Initial residual = 0.000157746, Final residual = 3.75462e-09, No Iterations 1
DILUPBiCGStab:  Solving for h, Initial residual = 0.00039088, Final residual = 5.59358e-09, No Iterations 1
DICPCG:  Solving for p_rgh, Initial residual = 0.00355881, Final residual = 3.0011e-05, No Iterations 15
diagonal:  Solving for rho, Initial residual = 0, Final residual = 0, No Iterations 0
time step continuity errors : sum local = 3.02495e-09, global = 1.98466e-10, cumulative = 1.14433e-06
DICPCG:  Solving for p_rgh, Initial residual = 4.01541e-05, Final residual = 6.33348e-09, No Iterations 29
diagonal:  Solving for rho, Initial residual = 0, Final residual = 0, No Iterations 0
time step continuity errors : sum local = 2.12041e-11, global = 2.11981e-11, cumulative = 1.14435e-06
DILUPBiCGStab:  Solving for epsilon, Initial residual = 0.000191054, Final residual = 3.68098e-09, No Iterations 1
DILUPBiCGStab:  Solving for k, Initial residual = 0.000110543, Final residual = 2.46668e-09, No Iterations 1
ExecutionTime = 0.08 s  ClockTime = 1 s

Courant Number mean: 0.00569039 max: 0.0262604
Time = 100.33

diagonal:  Solving for rho, Initial residual = 0, Final residual = 0, No Iterations 0
DILUPBiCGStab:  Solving for Ux, Initial residual = 0.000266541, Final residual = 4.69043e-09, No Iterations 1
DILUPBiCGStab:  Solving for Uy, Initial residual = 0.000162527, Final residual = 3.92796e-09, No Iterations 1
DILUPBiCGStab:  Solving for h, Initial residual = 0.000392569, Final residual = 5.62897e-09, No Iterations 1
DICPCG:  Solving for p_rgh, Initial residual = 0.00312028, Final residual = 3.04278e-05, No Iterations 15
diagonal:  Solving for rho, Initial residual = 0, Final residual = 0, No Iterations 0
time step continuity errors : sum local = 3.0453e-09, global = 7.33138e-11, cumulative = 1.14442e-06
DICPCG:  Solving for p_rgh, Initial residual = 3.93703e-05, Final residual = 7.59992e-09, No Iterations 28
diagonal:  Solving for rho, Initial residual = 0, Final residual = 0, No Iterations 0
time step continuity errors : sum local = 1.60511e-11, global = 1.60453e-11, cumulative = 1.14444e-06
DILUPBiCGStab:  Solving for epsilon, Initial residual = 0.000195885, Final residual = 3.80964e-09, No Iterations 1
DILUPBiCGStab:  Solving for k, Initial residual = 0.000112948, Final residual = 2.54795e-09, No Iterations 1
ExecutionTime = 0.09 s  ClockTime = 1 s

Courant Number mean: 0.00569001 max: 0.0262266
Time = 100.34

diagonal:  Solving for rho, Initial residual = 0, Final residual = 0, No Iterations 0
DILUPBiCGStab:  Solving for Ux, Initial residual = 0.000280034, Final residual = 4.98419e-09, No Iterations 1
DILUPBiCGStab:  Solving for Uy, Initial residual = 0.000168415, Final residual = 4.07476e-09, No Iterations 1
DILUPBiCGStab:  Solving for h, Initial residual = 0.00039488, Final residual = 5.66745e-09, No Iterations 1
DICPCG:  Solving for p_rgh, Initial residual = 0.00249873, Final residual = 2.22381e-05, No Iterations 20
diagonal:  Solving for rho, Initial residual = 0, Final residual = 0, No Iterations 0
time step continuity errors : sum local = 2.28164e-09, global = 1.76093e-10, cumulative = 1.14461e-06
DICPCG:  Solving for p_rgh, Initial residual = 2.96964e-05, Final residual = 4.88305e-09, No Iterations 29
diagonal:  Solving for rho, Initial residual = 0, Final residual = 0, No Iterations 0
time step continuity errors : sum local = 9.11735e-12, global = 9.10988e-12, cumulative = 1.14462e-06
DILUPBiCGStab:  Solving for epsilon, Initial residual = 0.000200701, Final residual = 3.93697e-09, No Iterations 1
DILUPBiCGStab:  Solving for k, Initial residual = 0.000115289, Final residual = 2.6284e-09, No Iterations 1
ExecutionTime = 0.09 s  ClockTime = 1 s

Courant Number mean: 0.00568965 max: 0.0261934
Time = 100.35

diagonal:  Solving for rho, Initial residual = 0, Final residual = 0, No Iterations 0
DILUPBiCGStab:  Solving for Ux, Initial residual = 0.000286605, Final residual = 5.11486e-09, No Iterations 1
DILUPBiCGStab:  Solving for Uy, Initial residual = 0.000172618, Final residual = 4.16527e-09, No Iterations 1
DILUPBiCGStab:  Solving for h, Initial residual = 0.000398281, Final residual = 5.71508e-09, No Iterations 1
DICPCG:  Solving for p_rgh, Initial residual = 0.00181455, Final residual = 1.54022e-05, No Iterations 21
diagonal:  Solving for rho, Initial residual = 0, Final residual = 0, No Iterations 0
time step continuity errors : sum local = 1.63322e-09, global = 1.7571e-10, cumulative = 1.1448e-06
DICPCG:  Solving for p_rgh, Initial residual = 2.40574e-05, Final residual = 8.59645e-09, No Iterations 28
diagonal:  Solving for rho, Initial residual = 0, Final residual = 0, No Iterations 0
time step continuity errors : sum local = 1.934e-12, global = 1.7064e-12, cumulative = 1.1448e-06
DILUPBiCGStab:  Solving for epsilon, Initial residual = 0.000205414, Final residual = 4.06302e-09, No Iterations 1
DILUPBiCGStab:  Solving for k, Initial residual = 0.000117571, Final residual = 2.70808e-09, No Iterations 1
ExecutionTime = 0.09 s  ClockTime = 1 s

Courant Number mean: 0.00568927 max: 0.0261599
Time = 100.36

diagonal:  Solving for rho, Initial residual = 0, Final residual = 0, No Iterations 0
DILUPBiCGStab:  Solving for Ux, Initial residual = 0.000283131, Final residual = 5.05777e-09, No Iterations 1
DILUPBiCGStab:  Solving for Uy, Initial residual = 0.000174177, Final residual = 4.1935e-09, No Iterations 1
DILUPBiCGStab:  Solving for h, Initial residual = 0.000402925, Final residual = 5.778e-09, No Iterations 1
DICPCG:  Solving for p_rgh, Initial residual = 0.00204073, Final residual = 2.00696e-05, No Iterations 19
diagonal:  Solving for rho, Initial residual = 0, Final residual = 0, No Iterations 0
time step continuity errors : sum local = 2.08904e-09, global = 1.64922e-10, cumulative = 1.14497e-06
DICPCG:  Solving for p_rgh, Initial residual = 2.84604e-05, Final residual = 6.60352e-09, No Iterations 28
diagonal:  Solving for rho, Initial residual = 0, Final residual = 0, No Iterations 0
time step continuity errors : sum local = 5.00082e-12, global = -4.94241e-12, cumulative = 1.14496e-06
DILUPBiCGStab:  Solving for epsilon, Initial residual = 0.000210015, Final residual = 4.18778e-09, No Iterations 1
DILUPBiCGStab:  Solving for k, Initial residual = 0.000119797, Final residual = 2.78686e-09, No Iterations 1
ExecutionTime = 0.09 s  ClockTime = 1 s

Courant Number mean: 0.00568888 max: 0.0261257
Time = 100.37

diagonal:  Solving for rho, Initial residual = 0, Final residual = 0, No Iterations 0
DILUPBiCGStab:  Solving for Ux, Initial residual = 0.000270846, Final residual = 4.83826e-09, No Iterations 1
DILUPBiCGStab:  Solving for Uy, Initial residual = 0.000173286, Final residual = 4.16723e-09, No Iterations 1
DILUPBiCGStab:  Solving for h, Initial residual = 0.000408259, Final residual = 5.84783e-09, No Iterations 1
DICPCG:  Solving for p_rgh, Initial residual = 0.00236471, Final residual = 1.45847e-05, No Iterations 18
diagonal:  Solving for rho, Initial residual = 0, Final residual = 0, No Iterations 0
time step continuity errors : sum local = 1.5555e-09, global = 1.66841e-10, cumulative = 1.14513e-06
DICPCG:  Solving for p_rgh, Initial residual = 2.2256e-05, Final residual = 8.48824e-09, No Iterations 28
diagonal:  Solving for rho, Initial residual = 0, Final residual = 0, No Iterations 0
time step continuity errors : sum local = 9.95556e-12, global = -9.91526e-12, cumulative = 1.14512e-06
DILUPBiCGStab:  Solving for epsilon, Initial residual = 0.000214497, Final residual = 4.31126e-09, No Iterations 1
DILUPBiCGStab:  Solving for k, Initial residual = 0.000122025, Final residual = 2.86474e-09, No Iterations 1
ExecutionTime = 0.09 s  ClockTime = 1 s

Courant Number mean: 0.00568847 max: 0.0260905
Time = 100.38

diagonal:  Solving for rho, Initial residual = 0, Final residual = 0, No Iterations 0
DILUPBiCGStab:  Solving for Ux, Initial residual = 0.000254178, Final residual = 4.52549e-09, No Iterations 1
DILUPBiCGStab:  Solving for Uy, Initial residual = 0.000170982, Final residual = 4.10351e-09, No Iterations 1
DILUPBiCGStab:  Solving for h, Initial residual = 0.000413271, Final residual = 5.91381e-09, No Iterations 1
DICPCG:  Solving for p_rgh, Initial residual = 0.00258014, Final residual = 1.95588e-05, No Iterations 18
diagonal:  Solving for rho, Initial residual = 0, Final residual = 0, No Iterations 0
time step continuity errors : sum local = 2.01361e-09, global = 1.26035e-10, cumulative = 1.14524e-06
DICPCG:  Solving for p_rgh, Initial residual = 2.68252e-05, Final residual = 4.74601e-09, No Iterations 29
diagonal:  Solving for rho, Initial residual = 0, Final residual = 0, No Iterations 0
time step continuity errors : sum local = 1.26179e-11, global = -1.26139e-11, cumulative = 1.14523e-06
DILUPBiCGStab:  Solving for epsilon, Initial residual = 0.000218852, Final residual = 4.43346e-09, No Iterations 1
DILUPBiCGStab:  Solving for k, Initial residual = 0.00012426, Final residual = 2.94172e-09, No Iterations 1
ExecutionTime = 0.1 s  ClockTime = 1 s

Courant Number mean: 0.00568804 max: 0.0260671
Time = 100.39

diagonal:  Solving for rho, Initial residual = 0, Final residual = 0, No Iterations 0
DILUPBiCGStab:  Solving for Ux, Initial residual = 0.000238985, Final residual = 4.22531e-09, No Iterations 1
DILUPBiCGStab:  Solving for Uy, Initial residual = 0.000168979, Final residual = 4.03659e-09, No Iterations 1
DILUPBiCGStab:  Solving for h, Initial residual = 0.000416928, Final residual = 5.96433e-09, No Iterations 1
DICPCG:  Solving for p_rgh, Initial residual = 0.00261143, Final residual = 2.33381e-05, No Iterations 18
diagonal:  Solving for rho, Initial residual = 0, Final residual = 0, No Iterations 0
time step continuity errors : sum local = 2.36866e-09, global = 1.04283e-10, cumulative = 1.14533e-06
DICPCG:  Solving for p_rgh, Initial residual = 2.99239e-05, Final residual = 8.48525e-09, No Iterations 28
diagonal:  Solving for rho, Initial residual = 0, Final residual = 0, No Iterations 0
time step continuity errors : sum local = 1.29172e-11, global = -1.29072e-11, cumulative = 1.14532e-06
DILUPBiCGStab:  Solving for epsilon, Initial residual = 0.000223078, Final residual = 4.5543e-09, No Iterations 1
DILUPBiCGStab:  Solving for k, Initial residual = 0.000126438, Final residual = 3.01773e-09, No Iterations 1
ExecutionTime = 0.1 s  ClockTime = 1 s

Courant Number mean: 0.00568758 max: 0.0260533
Time = 100.4

diagonal:  Solving for rho, Initial residual = 0, Final residual = 0, No Iterations 0
DILUPBiCGStab:  Solving for Ux, Initial residual = 0.00023344, Final residual = 4.10602e-09, No Iterations 1
DILUPBiCGStab:  Solving for Uy, Initial residual = 0.000167408, Final residual = 3.99605e-09, No Iterations 1
DILUPBiCGStab:  Solving for h, Initial residual = 0.000418714, Final residual = 5.99556e-09, No Iterations 1
DICPCG:  Solving for p_rgh, Initial residual = 0.00244559, Final residual = 2.4369e-05, No Iterations 16
diagonal:  Solving for rho, Initial residual = 0, Final residual = 0, No Iterations 0
time step continuity errors : sum local = 2.53031e-09, global = 9.5383e-11, cumulative = 1.14542e-06
DICPCG:  Solving for p_rgh, Initial residual = 3.17959e-05, Final residual = 5.00986e-09, No Iterations 29
diagonal:  Solving for rho, Initial residual = 0, Final residual = 0, No Iterations 0
time step continuity errors : sum local = 1.10814e-11, global = -1.10631e-11, cumulative = 1.14541e-06
DILUPBiCGStab:  Solving for epsilon, Initial residual = 0.000227174, Final residual = 4.67373e-09, No Iterations 1
DILUPBiCGStab:  Solving for k, Initial residual = 0.000128557, Final residual = 3.09269e-09, No Iterations 1
ExecutionTime = 0.1 s  ClockTime = 1 s

Courant Number mean: 0.0056871 max: 0.026039
Time = 100.41

diagonal:  Solving for rho, Initial residual = 0, Final residual = 0, No Iterations 0
DILUPBiCGStab:  Solving for Ux, Initial residual = 0.000237522, Final residual = 4.21594e-09, No Iterations 1
DILUPBiCGStab:  Solving for Uy, Initial residual = 0.000166322, Final residual = 3.96527e-09, No Iterations 1
DILUPBiCGStab:  Solving for h, Initial residual = 0.000418804, Final residual = 6.01232e-09, No Iterations 1
DICPCG:  Solving for p_rgh, Initial residual = 0.00213281, Final residual = 1.41501e-05, No Iterations 16
diagonal:  Solving for rho, Initial residual = 0, Final residual = 0, No Iterations 0
time step continuity errors : sum local = 1.55084e-09, global = 1.27732e-10, cumulative = 1.14553e-06
DICPCG:  Solving for p_rgh, Initial residual = 2.16961e-05, Final residual = 7.31049e-09, No Iterations 26
diagonal:  Solving for rho, Initial residual = 0, Final residual = 0, No Iterations 0
time step continuity errors : sum local = 7.67275e-12, global = -7.61043e-12, cumulative = 1.14553e-06
DILUPBiCGStab:  Solving for epsilon, Initial residual = 0.000231142, Final residual = 4.80346e-09, No Iterations 1
DILUPBiCGStab:  Solving for k, Initial residual = 0.000130616, Final residual = 3.17032e-09, No Iterations 1
ExecutionTime = 0.1 s  ClockTime = 1 s

Courant Number mean: 0.0056867 max: 0.0260246
Time = 100.42

diagonal:  Solving for rho, Initial residual = 0, Final residual = 0, No Iterations 0
DILUPBiCGStab:  Solving for Ux, Initial residual = 0.00024217, Final residual = 4.32433e-09, No Iterations 1
DILUPBiCGStab:  Solving for Uy, Initial residual = 0.00016623, Final residual = 3.95454e-09, No Iterations 1
DILUPBiCGStab:  Solving for h, Initial residual = 0.000417958, Final residual = 6.02875e-09, No Iterations 1
DICPCG:  Solving for p_rgh, Initial residual = 0.00174653, Final residual = 1.08344e-05, No Iterations 13
diagonal:  Solving for rho, Initial residual = 0, Final residual = 0, No Iterations 0
time step continuity errors : sum local = 1.23001e-09, global = 1.80019e-10, cumulative = 1.14571e-06
DICPCG:  Solving for p_rgh, Initial residual = 1.88061e-05, Final residual = 6.01637e-09, No Iterations 28
diagonal:  Solving for rho, Initial residual = 0, Final residual = 0, No Iterations 0
time step continuity errors : sum local = 3.3696e-12, global = -3.29319e-12, cumulative = 1.1457e-06
DILUPBiCGStab:  Solving for epsilon, Initial residual = 0.000234987, Final residual = 4.93302e-09, No Iterations 1
DILUPBiCGStab:  Solving for k, Initial residual = 0.000132618, Final residual = 3.24736e-09, No Iterations 1
ExecutionTime = 0.11 s  ClockTime = 1 s

Courant Number mean: 0.00568631 max: 0.02601
Time = 100.43

diagonal:  Solving for rho, Initial residual = 0, Final residual = 0, No Iterations 0
DILUPBiCGStab:  Solving for Ux, Initial residual = 0.000242443, Final residual = 4.34721e-09, No Iterations 1
DILUPBiCGStab:  Solving for Uy, Initial residual = 0.000166827, Final residual = 3.96553e-09, No Iterations 1
DILUPBiCGStab:  Solving for h, Initial residual = 0.000417069, Final residual = 6.04225e-09, No Iterations 1
DICPCG:  Solving for p_rgh, Initial residual = 0.00152958, Final residual = 1.32598e-05, No Iterations 14
diagonal:  Solving for rho, Initial residual = 0, Final residual = 0, No Iterations 0
time step continuity errors : sum local = 1.45098e-09, global = 2.11885e-10, cumulative = 1.14592e-06
DICPCG:  Solving for p_rgh, Initial residual = 1.98126e-05, Final residual = 8.31587e-09, No Iterations 28
diagonal:  Solving for rho, Initial residual = 0, Final residual = 0, No Iterations 0
time step continuity errors : sum local = 1.44705e-12, global = 1.12961e-12, cumulative = 1.14592e-06
DILUPBiCGStab:  Solving for epsilon, Initial residual = 0.000238715, Final residual = 5.06036e-09, No Iterations 1
DILUPBiCGStab:  Solving for k, Initial residual = 0.000134564, Final residual = 3.32312e-09, No Iterations 1
ExecutionTime = 0.11 s  ClockTime = 1 s

Courant Number mean: 0.00568592 max: 0.0259954
Time = 100.44

diagonal:  Solving for rho, Initial residual = 0, Final residual = 0, No Iterations 0
DILUPBiCGStab:  Solving for Ux, Initial residual = 0.000237605, Final residual = 4.27392e-09, No Iterations 1
DILUPBiCGStab:  Solving for Uy, Initial residual = 0.000166867, Final residual = 3.98841e-09, No Iterations 1
DILUPBiCGStab:  Solving for h, Initial residual = 0.00041656, Final residual = 6.05895e-09, No Iterations 1
DICPCG:  Solving for p_rgh, Initial residual = 0.00177806, Final residual = 1.18798e-05, No Iterations 15
diagonal:  Solving for rho, Initial residual = 0, Final residual = 0, No Iterations 0
time step continuity errors : sum local = 1.32273e-09, global = 2.2578e-10, cumulative = 1.14614e-06
DICPCG:  Solving for p_rgh, Initial residual = 1.97013e-05, Final residual = 5.42558e-09, No Iterations 28
diagonal:  Solving for rho, Initial residual = 0, Final residual = 0, No Iterations 0
time step continuity errors : sum local = 4.98207e-12, global = 4.93306e-12, cumulative = 1.14615e-06
DILUPBiCGStab:  Solving for epsilon, Initial residual = 0.000242324, Final residual = 5.18505e-09, No Iterations 1
DILUPBiCGStab:  Solving for k, Initial residual = 0.000136449, Final residual = 3.39739e-09, No Iterations 1
ExecutionTime = 0.11 s  ClockTime = 1 s

Courant Number mean: 0.00568553 max: 0.025981
Time = 100.45

diagonal:  Solving for rho, Initial residual = 0, Final residual = 0, No Iterations 0
DILUPBiCGStab:  Solving for Ux, Initial residual = 0.000228731, Final residual = 4.12353e-09, No Iterations 1
DILUPBiCGStab:  Solving for Uy, Initial residual = 0.000166463, Final residual = 4.02032e-09, No Iterations 1
DILUPBiCGStab:  Solving for h, Initial residual = 0.000416758, Final residual = 6.0829e-09, No Iterations 1
DICPCG:  Solving for p_rgh, Initial residual = 0.0019654, Final residual = 1.34226e-05, No Iterations 15
diagonal:  Solving for rho, Initial residual = 0, Final residual = 0, No Iterations 0
time step continuity errors : sum local = 1.47479e-09, global = 2.15027e-10, cumulative = 1.14636e-06
DICPCG:  Solving for p_rgh, Initial residual = 2.12504e-05, Final residual = 5.18544e-09, No Iterations 28
diagonal:  Solving for rho, Initial residual = 0, Final residual = 0, No Iterations 0
time step continuity errors : sum local = 7.63864e-12, global = 7.6103e-12, cumulative = 1.14637e-06
DILUPBiCGStab:  Solving for epsilon, Initial residual = 0.000245815, Final residual = 5.30679e-09, No Iterations 1
DILUPBiCGStab:  Solving for k, Initial residual = 0.000138272, Final residual = 3.46999e-09, No Iterations 1
ExecutionTime = 0.11 s  ClockTime = 1 s

Courant Number mean: 0.00568516 max: 0.0259668
Time = 100.46

diagonal:  Solving for rho, Initial residual = 0, Final residual = 0, No Iterations 0
DILUPBiCGStab:  Solving for Ux, Initial residual = 0.00021824, Final residual = 3.93346e-09, No Iterations 1
DILUPBiCGStab:  Solving for Uy, Initial residual = 0.000165843, Final residual = 4.05756e-09, No Iterations 1
DILUPBiCGStab:  Solving for h, Initial residual = 0.000417702, Final residual = 6.11225e-09, No Iterations 1
DICPCG:  Solving for p_rgh, Initial residual = 0.00208001, Final residual = 1.40701e-05, No Iterations 15
diagonal:  Solving for rho, Initial residual = 0, Final residual = 0, No Iterations 0
time step continuity errors : sum local = 1.53566e-09, global = 1.83317e-10, cumulative = 1.14655e-06
DICPCG:  Solving for p_rgh, Initial residual = 2.18105e-05, Final residual = 8.6107e-09, No Iterations 25
diagonal:  Solving for rho, Initial residual = 0, Final residual = 0, No Iterations 0
time step continuity errors : sum local = 8.95385e-12, global = 8.88949e-12, cumulative = 1.14656e-06
DILUPBiCGStab:  Solving for epsilon, Initial residual = 0.000249185, Final residual = 5.50543e-09, No Iterations 1
DILUPBiCGStab:  Solving for k, Initial residual = 0.000140032, Final residual = 3.56782e-09, No Iterations 1
ExecutionTime = 0.12 s  ClockTime = 1 s

Courant Number mean: 0.0056851 max: 0.0259574
Time = 100.47

diagonal:  Solving for rho, Initial residual = 0, Final residual = 0, No Iterations 0
DILUPBiCGStab:  Solving for Ux, Initial residual = 0.000208321, Final residual = 3.85476e-09, No Iterations 1
DILUPBiCGStab:  Solving for Uy, Initial residual = 0.000165558, Final residual = 4.1113e-09, No Iterations 1
DILUPBiCGStab:  Solving for h, Initial residual = 0.0004192, Final residual = 6.52759e-09, No Iterations 1
DICPCG:  Solving for p_rgh, Initial residual = 0.00215455, Final residual = 1.42449e-05, No Iterations 15
diagonal:  Solving for rho, Initial residual = 0, Final residual = 0, No Iterations 0
time step continuity errors : sum local = 1.54268e-09, global = 1.57092e-10, cumulative = 1.14672e-06
DICPCG:  Solving for p_rgh, Initial residual = 2.29061e-05, Final residual = 8.42264e-09, No Iterations 27
diagonal:  Solving for rho, Initial residual = 0, Final residual = 0, No Iterations 0
time step continuity errors : sum local = 8.79208e-12, global = 8.70498e-12, cumulative = 1.14673e-06
DILUPBiCGStab:  Solving for epsilon, Initial residual = 0.000252379, Final residual = 5.70351e-09, No Iterations 1
DILUPBiCGStab:  Solving for k, Initial residual = 0.000141708, Final residual = 3.66443e-09, No Iterations 1
ExecutionTime = 0.12 s  ClockTime = 1 s

Courant Number mean: 0.00568505 max: 0.0260136
Time = 100.48

diagonal:  Solving for rho, Initial residual = 0, Final residual = 0, No Iterations 0
DILUPBiCGStab:  Solving for Ux, Initial residual = 0.000204783, Final residual = 3.86263e-09, No Iterations 1
DILUPBiCGStab:  Solving for Uy, Initial residual = 0.0001666, Final residual = 4.16765e-09, No Iterations 1
DILUPBiCGStab:  Solving for h, Initial residual = 0.000421212, Final residual = 6.9503e-09, No Iterations 1
DICPCG:  Solving for p_rgh, Initial residual = 0.00191846, Final residual = 1.72523e-05, No Iterations 15
diagonal:  Solving for rho, Initial residual = 0, Final residual = 0, No Iterations 0
time step continuity errors : sum local = 1.83366e-09, global = 1.2953e-10, cumulative = 1.14686e-06
DICPCG:  Solving for p_rgh, Initial residual = 2.51147e-05, Final residual = 9.3532e-09, No Iterations 28
diagonal:  Solving for rho, Initial residual = 0, Final residual = 0, No Iterations 0
time step continuity errors : sum local = 7.30551e-12, global = 7.26211e-12, cumulative = 1.14686e-06
DILUPBiCGStab:  Solving for epsilon, Initial residual = 0.000255404, Final residual = 5.89682e-09, No Iterations 1
DILUPBiCGStab:  Solving for k, Initial residual = 0.000143305, Final residual = 3.75854e-09, No Iterations 1
ExecutionTime = 0.12 s  ClockTime = 1 s

Courant Number mean: 0.00568499 max: 0.0260672
Time = 100.49

diagonal:  Solving for rho, Initial residual = 0, Final residual = 0, No Iterations 0
DILUPBiCGStab:  Solving for Ux, Initial residual = 0.000206354, Final residual = 3.99803e-09, No Iterations 1
DILUPBiCGStab:  Solving for Uy, Initial residual = 0.000167722, Final residual = 4.23166e-09, No Iterations 1
DILUPBiCGStab:  Solving for h, Initial residual = 0.000423601, Final residual = 7.35906e-09, No Iterations 1
DICPCG:  Solving for p_rgh, Initial residual = 0.00168184, Final residual = 1.58468e-05, No Iterations 18
diagonal:  Solving for rho, Initial residual = 0, Final residual = 0, No Iterations 0
time step continuity errors : sum local = 1.6958e-09, global = 1.4542e-10, cumulative = 1.14701e-06
DICPCG:  Solving for p_rgh, Initial residual = 2.22877e-05, Final residual = 8.8285e-09, No Iterations 28
diagonal:  Solving for rho, Initial residual = 0, Final residual = 0, No Iterations 0
time step continuity errors : sum local = 5.00828e-12, global = 4.94086e-12, cumulative = 1.14701e-06
DILUPBiCGStab:  Solving for epsilon, Initial residual = 0.000258252, Final residual = 6.08512e-09, No Iterations 1
DILUPBiCGStab:  Solving for k, Initial residual = 0.000144821, Final residual = 3.84991e-09, No Iterations 1
ExecutionTime = 0.12 s  ClockTime = 1 s

Courant Number mean: 0.00568491 max: 0.0261185
Time = 100.5

diagonal:  Solving for rho, Initial residual = 0, Final residual = 0, No Iterations 0
DILUPBiCGStab:  Solving for Ux, Initial residual = 0.000207973, Final residual = 4.10709e-09, No Iterations 1
DILUPBiCGStab:  Solving for Uy, Initial residual = 0.000168751, Final residual = 4.28295e-09, No Iterations 1
DILUPBiCGStab:  Solving for h, Initial residual = 0.000426297, Final residual = 7.75678e-09, No Iterations 1
DICPCG:  Solving for p_rgh, Initial residual = 0.00141169, Final residual = 1.13005e-05, No Iterations 21
diagonal:  Solving for rho, Initial residual = 0, Final residual = 0, No Iterations 0
time step continuity errors : sum local = 1.26814e-09, global = 1.85722e-10, cumulative = 1.1472e-06
DICPCG:  Solving for p_rgh, Initial residual = 1.92053e-05, Final residual = 6.48209e-09, No Iterations 27
diagonal:  Solving for rho, Initial residual = 0, Final residual = 0, No Iterations 0
time step continuity errors : sum local = 2.34019e-12, global = 2.2179e-12, cumulative = 1.1472e-06
DILUPBiCGStab:  Solving for epsilon, Initial residual = 0.000260919, Final residual = 6.26831e-09, No Iterations 1
DILUPBiCGStab:  Solving for k, Initial residual = 0.000146257, Final residual = 3.93853e-09, No Iterations 1
ExecutionTime = 0.12 s  ClockTime = 1 s

Courant Number mean: 0.00568483 max: 0.0261676
Time = 100.51

diagonal:  Solving for rho, Initial residual = 0, Final residual = 0, No Iterations 0
DILUPBiCGStab:  Solving for Ux, Initial residual = 0.000207434, Final residual = 4.15801e-09, No Iterations 1
DILUPBiCGStab:  Solving for Uy, Initial residual = 0.000169404, Final residual = 4.31689e-09, No Iterations 1
DILUPBiCGStab:  Solving for h, Initial residual = 0.000429223, Final residual = 8.14069e-09, No Iterations 1
DICPCG:  Solving for p_rgh, Initial residual = 0.00124917, Final residual = 1.04224e-05, No Iterations 21
diagonal:  Solving for rho, Initial residual = 0, Final residual = 0, No Iterations 0
time step continuity errors : sum local = 1.18803e-09, global = 1.75417e-10, cumulative = 1.14738e-06
DICPCG:  Solving for p_rgh, Initial residual = 1.82317e-05, Final residual = 6.25467e-09, No Iterations 27
diagonal:  Solving for rho, Initial residual = 0, Final residual = 0, No Iterations 0
time step continuity errors : sum local = 8.91357e-13, global = -4.43608e-13, cumulative = 1.14738e-06
DILUPBiCGStab:  Solving for epsilon, Initial residual = 0.000263402, Final residual = 6.44632e-09, No Iterations 1
DILUPBiCGStab:  Solving for k, Initial residual = 0.000147614, Final residual = 4.02434e-09, No Iterations 1
ExecutionTime = 0.13 s  ClockTime = 1 s

Courant Number mean: 0.00568477 max: 0.0262147
Time = 100.52

diagonal:  Solving for rho, Initial residual = 0, Final residual = 0, No Iterations 0
DILUPBiCGStab:  Solving for Ux, Initial residual = 0.000204533, Final residual = 4.15067e-09, No Iterations 1
DILUPBiCGStab:  Solving for Uy, Initial residual = 0.000169615, Final residual = 4.3352e-09, No Iterations 1
DILUPBiCGStab:  Solving for h, Initial residual = 0.000432195, Final residual = 8.51115e-09, No Iterations 1
DICPCG:  Solving for p_rgh, Initial residual = 0.00136863, Final residual = 1.3104e-05, No Iterations 19
diagonal:  Solving for rho, Initial residual = 0, Final residual = 0, No Iterations 0
time step continuity errors : sum local = 1.4773e-09, global = 1.76867e-10, cumulative = 1.14755e-06
DICPCG:  Solving for p_rgh, Initial residual = 2.03882e-05, Final residual = 6.49874e-09, No Iterations 28
diagonal:  Solving for rho, Initial residual = 0, Final residual = 0, No Iterations 0
time step continuity errors : sum local = 2.71207e-12, global = -2.61695e-12, cumulative = 1.14755e-06
DILUPBiCGStab:  Solving for epsilon, Initial residual = 0.000265698, Final residual = 6.61904e-09, No Iterations 1
DILUPBiCGStab:  Solving for k, Initial residual = 0.000148891, Final residual = 4.10748e-09, No Iterations 1
ExecutionTime = 0.13 s  ClockTime = 1 s

Courant Number mean: 0.00568469 max: 0.0262599
Time = 100.53

diagonal:  Solving for rho, Initial residual = 0, Final residual = 0, No Iterations 0
DILUPBiCGStab:  Solving for Ux, Initial residual = 0.000200116, Final residual = 4.0986e-09, No Iterations 1
DILUPBiCGStab:  Solving for Uy, Initial residual = 0.000169458, Final residual = 4.34132e-09, No Iterations 1
DILUPBiCGStab:  Solving for h, Initial residual = 0.000435012, Final residual = 8.86707e-09, No Iterations 1
DICPCG:  Solving for p_rgh, Initial residual = 0.00144945, Final residual = 1.19629e-05, No Iterations 18
diagonal:  Solving for rho, Initial residual = 0, Final residual = 0, No Iterations 0
time step continuity errors : sum local = 1.33892e-09, global = 1.78923e-10, cumulative = 1.14773e-06
DICPCG:  Solving for p_rgh, Initial residual = 1.83195e-05, Final residual = 6.92857e-09, No Iterations 27
diagonal:  Solving for rho, Initial residual = 0, Final residual = 0, No Iterations 0
time step continuity errors : sum local = 4.14998e-12, global = -4.06323e-12, cumulative = 1.14773e-06
DILUPBiCGStab:  Solving for epsilon, Initial residual = 0.000267806, Final residual = 6.78626e-09, No Iterations 1
DILUPBiCGStab:  Solving for k, Initial residual = 0.000150088, Final residual = 4.18778e-09, No Iterations 1
ExecutionTime = 0.13 s  ClockTime = 1 s

Courant Number mean: 0.0056846 max: 0.0263034
Time = 100.54

diagonal:  Solving for rho, Initial residual = 0, Final residual = 0, No Iterations 0
DILUPBiCGStab:  Solving for Ux, Initial residual = 0.000195494, Final residual = 4.02782e-09, No Iterations 1
DILUPBiCGStab:  Solving for Uy, Initial residual = 0.000169065, Final residual = 4.33948e-09, No Iterations 1
DILUPBiCGStab:  Solving for h, Initial residual = 0.000437428, Final residual = 9.20725e-09, No Iterations 1
DICPCG:  Solving for p_rgh, Initial residual = 0.0014773, Final residual = 8.8541e-06, No Iterations 18
diagonal:  Solving for rho, Initial residual = 0, Final residual = 0, No Iterations 0
time step continuity errors : sum local = 1.04163e-09, global = 1.81418e-10, cumulative = 1.14791e-06
DICPCG:  Solving for p_rgh, Initial residual = 1.54653e-05, Final residual = 7.98824e-09, No Iterations 26
diagonal:  Solving for rho, Initial residual = 0, Final residual = 0, No Iterations 0
time step continuity errors : sum local = 4.76761e-12, global = -4.60404e-12, cumulative = 1.1479e-06
DILUPBiCGStab:  Solving for epsilon, Initial residual = 0.000269723, Final residual = 6.94758e-09, No Iterations 1
DILUPBiCGStab:  Solving for k, Initial residual = 0.000151206, Final residual = 4.26497e-09, No Iterations 1
ExecutionTime = 0.13 s  ClockTime = 1 s

Courant Number mean: 0.00568448 max: 0.0263452
Time = 100.55

diagonal:  Solving for rho, Initial residual = 0, Final residual = 0, No Iterations 0
DILUPBiCGStab:  Solving for Ux, Initial residual = 0.000192086, Final residual = 3.9757e-09, No Iterations 1
DILUPBiCGStab:  Solving for Uy, Initial residual = 0.000168461, Final residual = 4.33402e-09, No Iterations 1
DILUPBiCGStab:  Solving for h, Initial residual = 0.000439283, Final residual = 9.53092e-09, No Iterations 1
DICPCG:  Solving for p_rgh, Initial residual = 0.00143726, Final residual = 1.42697e-05, No Iterations 17
diagonal:  Solving for rho, Initial residual = 0, Final residual = 0, No Iterations 0
time step continuity errors : sum local = 1.58229e-09, global = 1.7375e-10, cumulative = 1.14808e-06
DICPCG:  Solving for p_rgh, Initial residual = 2.0983e-05, Final residual = 7.86207e-09, No Iterations 27
diagonal:  Solving for rho, Initial residual = 0, Final residual = 0, No Iterations 0
time step continuity errors : sum local = 4.3967e-12, global = -4.32352e-12, cumulative = 1.14807e-06
DILUPBiCGStab:  Solving for epsilon, Initial residual = 0.00027145, Final residual = 7.10272e-09, No Iterations 1
DILUPBiCGStab:  Solving for k, Initial residual = 0.000152246, Final residual = 4.33887e-09, No Iterations 1
ExecutionTime = 0.14 s  ClockTime = 1 s

Courant Number mean: 0.00568435 max: 0.0263852
Time = 100.56

diagonal:  Solving for rho, Initial residual = 0, Final residual = 0, No Iterations 0
DILUPBiCGStab:  Solving for Ux, Initial residual = 0.000190586, Final residual = 3.95366e-09, No Iterations 1
DILUPBiCGStab:  Solving for Uy, Initial residual = 0.000167765, Final residual = 4.32846e-09, No Iterations 1
DILUPBiCGStab:  Solving for h, Initial residual = 0.000440559, Final residual = 9.83773e-09, No Iterations 1
DICPCG:  Solving for p_rgh, Initial residual = 0.00133641, Final residual = 1.30525e-05, No Iterations 17
diagonal:  Solving for rho, Initial residual = 0, Final residual = 0, No Iterations 0
time step continuity errors : sum local = 1.46644e-09, global = 1.73093e-10, cumulative = 1.14825e-06
DICPCG:  Solving for p_rgh, Initial residual = 1.95875e-05, Final residual = 8.22484e-09, No Iterations 27
diagonal:  Solving for rho, Initial residual = 0, Final residual = 0, No Iterations 0
time step continuity errors : sum local = 3.43458e-12, global = -3.32285e-12, cumulative = 1.14824e-06
DILUPBiCGStab:  Solving for epsilon, Initial residual = 0.000272989, Final residual = 7.25088e-09, No Iterations 1
DILUPBiCGStab:  Solving for k, Initial residual = 0.000153206, Final residual = 4.40922e-09, No Iterations 1
ExecutionTime = 0.14 s  ClockTime = 1 s

Courant Number mean: 0.0056842 max: 0.0264235
Time = 100.57

diagonal:  Solving for rho, Initial residual = 0, Final residual = 0, No Iterations 0
DILUPBiCGStab:  Solving for Ux, Initial residual = 0.00018969, Final residual = 3.93863e-09, No Iterations 1
DILUPBiCGStab:  Solving for Uy, Initial residual = 0.000167071, Final residual = 4.32509e-09, No Iterations 1
DILUPBiCGStab:  Solving for h, Initial residual = 0.000441366, Final residual = 1.01282e-08, No Iterations 1
DICPCG:  Solving for p_rgh, Initial residual = 0.00119536, Final residual = 1.16595e-05, No Iterations 16
diagonal:  Solving for rho, Initial residual = 0, Final residual = 0, No Iterations 0
time step continuity errors : sum local = 1.35e-09, global = 1.4829e-10, cumulative = 1.14839e-06
DICPCG:  Solving for p_rgh, Initial residual = 1.78074e-05, Final residual = 9.91632e-09, No Iterations 27
diagonal:  Solving for rho, Initial residual = 0, Final residual = 0, No Iterations 0
time step continuity errors : sum local = 2.20191e-12, global = -1.86907e-12, cumulative = 1.14839e-06
DILUPBiCGStab:  Solving for epsilon, Initial residual = 0.00027434, Final residual = 7.39142e-09, No Iterations 1
DILUPBiCGStab:  Solving for k, Initial residual = 0.000154086, Final residual = 4.47585e-09, No Iterations 1
ExecutionTime = 0.14 s  ClockTime = 1 s

Courant Number mean: 0.00568403 max: 0.02646
Time = 100.58

diagonal:  Solving for rho, Initial residual = 0, Final residual = 0, No Iterations 0
DILUPBiCGStab:  Solving for Ux, Initial residual = 0.00018849, Final residual = 3.89571e-09, No Iterations 1
DILUPBiCGStab:  Solving for Uy, Initial residual = 0.000166452, Final residual = 4.32562e-09, No Iterations 1
DILUPBiCGStab:  Solving for h, Initial residual = 0.000441888, Final residual = 1.04034e-08, No Iterations 1
DICPCG:  Solving for p_rgh, Initial residual = 0.00104426, Final residual = 8.56653e-06, No Iterations 15
diagonal:  Solving for rho, Initial residual = 0, Final residual = 0, No Iterations 0
time step continuity errors : sum local = 1.01111e-09, global = 1.18198e-10, cumulative = 1.14851e-06
DICPCG:  Solving for p_rgh, Initial residual = 1.50559e-05, Final residual = 8.84451e-09, No Iterations 25
diagonal:  Solving for rho, Initial residual = 0, Final residual = 0, No Iterations 0
time step continuity errors : sum local = 9.50093e-13, global = -2.39796e-13, cumulative = 1.14851e-06
DILUPBiCGStab:  Solving for epsilon, Initial residual = 0.000275507, Final residual = 7.52515e-09, No Iterations 1
DILUPBiCGStab:  Solving for k, Initial residual = 0.000154885, Final residual = 4.53873e-09, No Iterations 1
ExecutionTime = 0.14 s  ClockTime = 1 s

Courant Number mean: 0.00568386 max: 0.0264946
Time = 100.59

diagonal:  Solving for rho, Initial residual = 0, Final residual = 0, No Iterations 0
DILUPBiCGStab:  Solving for Ux, Initial residual = 0.000186557, Final residual = 3.81785e-09, No Iterations 1
DILUPBiCGStab:  Solving for Uy, Initial residual = 0.000166194, Final residual = 4.33317e-09, No Iterations 1
DILUPBiCGStab:  Solving for h, Initial residual = 0.000442308, Final residual = 1.06639e-08, No Iterations 1
DICPCG:  Solving for p_rgh, Initial residual = 0.00108297, Final residual = 8.89433e-06, No Iterations 15
diagonal:  Solving for rho, Initial residual = 0, Final residual = 0, No Iterations 0
time step continuity errors : sum local = 1.04812e-09, global = 1.75485e-10, cumulative = 1.14868e-06
[...]
DICPCG:  Solving for p_rgh, Initial residual = 1.17357e-05, Final residual = 8.0111e-09, No Iterations 26
diagonal:  Solving for rho, Initial residual = 0, Final residual = 0, No Iterations 0
time step continuity errors : sum local = 1.10071e-12, global = -5.5943e-13, cumulative = 1.17716e-06
DILUPBiCGStab:  Solving for epsilon, Initial residual = 0.000221862, Final residual = 9.50037e-09, No Iterations 1
DILUPBiCGStab:  Solving for k, Initial residual = 0.000155655, Final residual = 6.05998e-09, No Iterations 1
ExecutionTime = 0.49 s  ClockTime = 1 s

Courant Number mean: 0.00569476 max: 0.0260733
Time = 102.06

diagonal:  Solving for rho, Initial residual = 0, Final residual = 0, No Iterations 0
DILUPBiCGStab:  Solving for Ux, Initial residual = 0.000161862, Final residual = 4.52477e-09, No Iterations 1
DILUPBiCGStab:  Solving for Uy, Initial residual = 0.000135088, Final residual = 3.80305e-09, No Iterations 1
DILUPBiCGStab:  Solving for h, Initial residual = 0.000414186, Final residual = 1.93637e-08, No Iterations 1
DICPCG:  Solving for p_rgh, Initial residual = 0.000894969, Final residual = 7.54871e-06, No Iterations 17
diagonal:  Solving for rho, Initial residual = 0, Final residual = 0, No Iterations 0
time step continuity errors : sum local = 1.0139e-09, global = 1.82673e-10, cumulative = 1.17734e-06
DICPCG:  Solving for p_rgh, Initial residual = 1.16371e-05, Final residual = 8.23609e-09, No Iterations 26
diagonal:  Solving for rho, Initial residual = 0, Final residual = 0, No Iterations 0
time step continuity errors : sum local = 1.10001e-12, global = -5.4354e-13, cumulative = 1.17734e-06
DILUPBiCGStab:  Solving for epsilon, Initial residual = 0.000221722, Final residual = 9.5082e-09, No Iterations 1
DILUPBiCGStab:  Solving for k, Initial residual = 0.000155833, Final residual = 6.07053e-09, No Iterations 1
ExecutionTime = 0.49 s  ClockTime = 1 s

Courant Number mean: 0.0056952 max: 0.0260676
Time = 102.07

diagonal:  Solving for rho, Initial residual = 0, Final residual = 0, No Iterations 0
DILUPBiCGStab:  Solving for Ux, Initial residual = 0.000161741, Final residual = 4.49876e-09, No Iterations 1
DILUPBiCGStab:  Solving for Uy, Initial residual = 0.000134933, Final residual = 3.80953e-09, No Iterations 1
DILUPBiCGStab:  Solving for h, Initial residual = 0.000413956, Final residual = 1.94347e-08, No Iterations 1
DICPCG:  Solving for p_rgh, Initial residual = 0.000895003, Final residual = 7.45158e-06, No Iterations 17
diagonal:  Solving for rho, Initial residual = 0, Final residual = 0, No Iterations 0
time step continuity errors : sum local = 1.0041e-09, global = 1.82873e-10, cumulative = 1.17753e-06
DICPCG:  Solving for p_rgh, Initial residual = 1.15404e-05, Final residual = 8.43913e-09, No Iterations 26
diagonal:  Solving for rho, Initial residual = 0, Final residual = 0, No Iterations 0
time step continuity errors : sum local = 1.13918e-12, global = -5.52615e-13, cumulative = 1.17753e-06
DILUPBiCGStab:  Solving for epsilon, Initial residual = 0.000221549, Final residual = 9.5143e-09, No Iterations 1
DILUPBiCGStab:  Solving for k, Initial residual = 0.000155992, Final residual = 6.08019e-09, No Iterations 1
ExecutionTime = 0.49 s  ClockTime = 1 s

Courant Number mean: 0.00569565 max: 0.026062
Time = 102.08

diagonal:  Solving for rho, Initial residual = 0, Final residual = 0, No Iterations 0
DILUPBiCGStab:  Solving for Ux, Initial residual = 0.000161614, Final residual = 4.47285e-09, No Iterations 1
DILUPBiCGStab:  Solving for Uy, Initial residual = 0.000134771, Final residual = 3.81565e-09, No Iterations 1
DILUPBiCGStab:  Solving for h, Initial residual = 0.000413709, Final residual = 1.95045e-08, No Iterations 1
DICPCG:  Solving for p_rgh, Initial residual = 0.00089494, Final residual = 7.35635e-06, No Iterations 17
diagonal:  Solving for rho, Initial residual = 0, Final residual = 0, No Iterations 0
time step continuity errors : sum local = 9.94463e-10, global = 1.83067e-10, cumulative = 1.17771e-06
DICPCG:  Solving for p_rgh, Initial residual = 1.14447e-05, Final residual = 8.61833e-09, No Iterations 26
diagonal:  Solving for rho, Initial residual = 0, Final residual = 0, No Iterations 0
time step continuity errors : sum local = 1.12221e-12, global = -5.47038e-13, cumulative = 1.17771e-06
DILUPBiCGStab:  Solving for epsilon, Initial residual = 0.000221345, Final residual = 9.5187e-09, No Iterations 1
DILUPBiCGStab:  Solving for k, Initial residual = 0.000156134, Final residual = 6.08897e-09, No Iterations 1
ExecutionTime = 0.49 s  ClockTime = 1 s

Courant Number mean: 0.0056961 max: 0.0260565
Time = 102.09

diagonal:  Solving for rho, Initial residual = 0, Final residual = 0, No Iterations 0
DILUPBiCGStab:  Solving for Ux, Initial residual = 0.000161482, Final residual = 4.44708e-09, No Iterations 1
DILUPBiCGStab:  Solving for Uy, Initial residual = 0.000134598, Final residual = 3.82143e-09, No Iterations 1
DILUPBiCGStab:  Solving for h, Initial residual = 0.000413446, Final residual = 1.95732e-08, No Iterations 1
DICPCG:  Solving for p_rgh, Initial residual = 0.00089478, Final residual = 7.26289e-06, No Iterations 17
diagonal:  Solving for rho, Initial residual = 0, Final residual = 0, No Iterations 0
time step continuity errors : sum local = 9.8506e-10, global = 1.83262e-10, cumulative = 1.17789e-06
DICPCG:  Solving for p_rgh, Initial residual = 1.13516e-05, Final residual = 8.77917e-09, No Iterations 26
diagonal:  Solving for rho, Initial residual = 0, Final residual = 0, No Iterations 0
time step continuity errors : sum local = 1.14324e-12, global = -5.34994e-13, cumulative = 1.17789e-06
DILUPBiCGStab:  Solving for epsilon, Initial residual = 0.000221155, Final residual = 9.52142e-09, No Iterations 1
DILUPBiCGStab:  Solving for k, Initial residual = 0.00015626, Final residual = 6.09689e-09, No Iterations 1
ExecutionTime = 0.5 s  ClockTime = 1 s

Courant Number mean: 0.00569655 max: 0.0260509
Time = 102.1

diagonal:  Solving for rho, Initial residual = 0, Final residual = 0, No Iterations 0
DILUPBiCGStab:  Solving for Ux, Initial residual = 0.000161343, Final residual = 4.42143e-09, No Iterations 1
DILUPBiCGStab:  Solving for Uy, Initial residual = 0.000134525, Final residual = 3.82687e-09, No Iterations 1
DILUPBiCGStab:  Solving for h, Initial residual = 0.00041317, Final residual = 1.96407e-08, No Iterations 1
DICPCG:  Solving for p_rgh, Initial residual = 0.000894523, Final residual = 7.17206e-06, No Iterations 17
diagonal:  Solving for rho, Initial residual = 0, Final residual = 0, No Iterations 0
time step continuity errors : sum local = 9.75921e-10, global = 1.83461e-10, cumulative = 1.17807e-06
DICPCG:  Solving for p_rgh, Initial residual = 1.12611e-05, Final residual = 8.91442e-09, No Iterations 26
diagonal:  Solving for rho, Initial residual = 0, Final residual = 0, No Iterations 0
time step continuity errors : sum local = 1.1606e-12, global = -5.30696e-13, cumulative = 1.17807e-06
DILUPBiCGStab:  Solving for epsilon, Initial residual = 0.000221006, Final residual = 9.52255e-09, No Iterations 1
DILUPBiCGStab:  Solving for k, Initial residual = 0.00015637, Final residual = 6.10394e-09, No Iterations 1
ExecutionTime = 0.5 s  ClockTime = 1 s

Courant Number mean: 0.005697 max: 0.0260453
Time = 102.11

diagonal:  Solving for rho, Initial residual = 0, Final residual = 0, No Iterations 0
DILUPBiCGStab:  Solving for Ux, Initial residual = 0.000161197, Final residual = 4.39588e-09, No Iterations 1
DILUPBiCGStab:  Solving for Uy, Initial residual = 0.000134537, Final residual = 3.83196e-09, No Iterations 1
DILUPBiCGStab:  Solving for h, Initial residual = 0.000412879, Final residual = 1.97071e-08, No Iterations 1
DICPCG:  Solving for p_rgh, Initial residual = 0.000894169, Final residual = 7.08316e-06, No Iterations 17
diagonal:  Solving for rho, Initial residual = 0, Final residual = 0, No Iterations 0
time step continuity errors : sum local = 9.66921e-10, global = 1.83666e-10, cumulative = 1.17826e-06
DICPCG:  Solving for p_rgh, Initial residual = 1.11714e-05, Final residual = 9.03295e-09, No Iterations 26
diagonal:  Solving for rho, Initial residual = 0, Final residual = 0, No Iterations 0
time step continuity errors : sum local = 1.18119e-12, global = -5.34155e-13, cumulative = 1.17826e-06
DILUPBiCGStab:  Solving for epsilon, Initial residual = 0.000220826, Final residual = 9.52212e-09, No Iterations 1
DILUPBiCGStab:  Solving for k, Initial residual = 0.000156464, Final residual = 6.11013e-09, No Iterations 1
ExecutionTime = 0.5 s  ClockTime = 1 s

Courant Number mean: 0.00569746 max: 0.0260398
Time = 102.12

diagonal:  Solving for rho, Initial residual = 0, Final residual = 0, No Iterations 0
DILUPBiCGStab:  Solving for Ux, Initial residual = 0.000161046, Final residual = 4.37047e-09, No Iterations 1
DILUPBiCGStab:  Solving for Uy, Initial residual = 0.000134538, Final residual = 3.83696e-09, No Iterations 1
DILUPBiCGStab:  Solving for h, Initial residual = 0.000412571, Final residual = 1.97799e-08, No Iterations 1
DICPCG:  Solving for p_rgh, Initial residual = 0.000893855, Final residual = 6.99644e-06, No Iterations 17
diagonal:  Solving for rho, Initial residual = 0, Final residual = 0, No Iterations 0
time step continuity errors : sum local = 9.58251e-10, global = 1.83858e-10, cumulative = 1.17844e-06
DICPCG:  Solving for p_rgh, Initial residual = 1.10838e-05, Final residual = 9.14224e-09, No Iterations 26
diagonal:  Solving for rho, Initial residual = 0, Final residual = 0, No Iterations 0
time step continuity errors : sum local = 1.18278e-12, global = -5.25142e-13, cumulative = 1.17844e-06
DILUPBiCGStab:  Solving for epsilon, Initial residual = 0.000220617, Final residual = 9.52013e-09, No Iterations 1
DILUPBiCGStab:  Solving for k, Initial residual = 0.000156564, Final residual = 6.11549e-09, No Iterations 1
ExecutionTime = 0.5 s  ClockTime = 1 s

Courant Number mean: 0.00569793 max: 0.0260343
Time = 102.13

diagonal:  Solving for rho, Initial residual = 0, Final residual = 0, No Iterations 0
DILUPBiCGStab:  Solving for Ux, Initial residual = 0.000160889, Final residual = 4.34518e-09, No Iterations 1
DILUPBiCGStab:  Solving for Uy, Initial residual = 0.000134529, Final residual = 3.84177e-09, No Iterations 1
DILUPBiCGStab:  Solving for h, Initial residual = 0.000412274, Final residual = 1.98555e-08, No Iterations 1
DICPCG:  Solving for p_rgh, Initial residual = 0.000893646, Final residual = 6.91239e-06, No Iterations 17
diagonal:  Solving for rho, Initial residual = 0, Final residual = 0, No Iterations 0
time step continuity errors : sum local = 9.49789e-10, global = 1.84044e-10, cumulative = 1.17862e-06
DICPCG:  Solving for p_rgh, Initial residual = 1.10002e-05, Final residual = 9.24332e-09, No Iterations 26
diagonal:  Solving for rho, Initial residual = 0, Final residual = 0, No Iterations 0
time step continuity errors : sum local = 1.19503e-12, global = -5.18861e-13, cumulative = 1.17862e-06
DILUPBiCGStab:  Solving for epsilon, Initial residual = 0.000220379, Final residual = 9.51661e-09, No Iterations 1
DILUPBiCGStab:  Solving for k, Initial residual = 0.000156695, Final residual = 6.12005e-09, No Iterations 1
ExecutionTime = 0.51 s  ClockTime = 1 s

Courant Number mean: 0.0056984 max: 0.0260287
Time = 102.14

diagonal:  Solving for rho, Initial residual = 0, Final residual = 0, No Iterations 0
DILUPBiCGStab:  Solving for Ux, Initial residual = 0.000160726, Final residual = 4.32002e-09, No Iterations 1
DILUPBiCGStab:  Solving for Uy, Initial residual = 0.000134523, Final residual = 3.84623e-09, No Iterations 1
DILUPBiCGStab:  Solving for h, Initial residual = 0.000412005, Final residual = 1.99355e-08, No Iterations 1
DICPCG:  Solving for p_rgh, Initial residual = 0.000893371, Final residual = 6.82902e-06, No Iterations 17
diagonal:  Solving for rho, Initial residual = 0, Final residual = 0, No Iterations 0
time step continuity errors : sum local = 9.41507e-10, global = 1.84252e-10, cumulative = 1.17881e-06
DICPCG:  Solving for p_rgh, Initial residual = 1.09187e-05, Final residual = 9.36489e-09, No Iterations 26
diagonal:  Solving for rho, Initial residual = 0, Final residual = 0, No Iterations 0
time step continuity errors : sum local = 1.20718e-12, global = -5.12925e-13, cumulative = 1.17881e-06
DILUPBiCGStab:  Solving for epsilon, Initial residual = 0.000220114, Final residual = 9.51158e-09, No Iterations 1
DILUPBiCGStab:  Solving for k, Initial residual = 0.000156811, Final residual = 6.1238e-09, No Iterations 1
ExecutionTime = 0.51 s  ClockTime = 1 s

Courant Number mean: 0.00569887 max: 0.0260232
Time = 102.15

diagonal:  Solving for rho, Initial residual = 0, Final residual = 0, No Iterations 0
DILUPBiCGStab:  Solving for Ux, Initial residual = 0.000160557, Final residual = 4.29498e-09, No Iterations 1
DILUPBiCGStab:  Solving for Uy, Initial residual = 0.000134525, Final residual = 3.85033e-09, No Iterations 1
DILUPBiCGStab:  Solving for h, Initial residual = 0.000411721, Final residual = 2.00145e-08, No Iterations 1
DICPCG:  Solving for p_rgh, Initial residual = 0.000893006, Final residual = 6.748e-06, No Iterations 17
diagonal:  Solving for rho, Initial residual = 0, Final residual = 0, No Iterations 0
time step continuity errors : sum local = 9.33525e-10, global = 1.84441e-10, cumulative = 1.17899e-06
DICPCG:  Solving for p_rgh, Initial residual = 1.08393e-05, Final residual = 9.49146e-09, No Iterations 26
diagonal:  Solving for rho, Initial residual = 0, Final residual = 0, No Iterations 0
time step continuity errors : sum local = 1.22366e-12, global = -5.10927e-13, cumulative = 1.17899e-06
DILUPBiCGStab:  Solving for epsilon, Initial residual = 0.000219821, Final residual = 9.50505e-09, No Iterations 1
DILUPBiCGStab:  Solving for k, Initial residual = 0.000156912, Final residual = 6.12676e-09, No Iterations 1
ExecutionTime = 0.51 s  ClockTime = 1 s

Courant Number mean: 0.00569934 max: 0.0260177
Time = 102.16

diagonal:  Solving for rho, Initial residual = 0, Final residual = 0, No Iterations 0
DILUPBiCGStab:  Solving for Ux, Initial residual = 0.000160382, Final residual = 4.27007e-09, No Iterations 1
DILUPBiCGStab:  Solving for Uy, Initial residual = 0.000134517, Final residual = 3.85408e-09, No Iterations 1
DILUPBiCGStab:  Solving for h, Initial residual = 0.000411422, Final residual = 2.00926e-08, No Iterations 1
DICPCG:  Solving for p_rgh, Initial residual = 0.000892498, Final residual = 6.6698e-06, No Iterations 17
diagonal:  Solving for rho, Initial residual = 0, Final residual = 0, No Iterations 0
time step continuity errors : sum local = 9.25834e-10, global = 1.84647e-10, cumulative = 1.17918e-06
DICPCG:  Solving for p_rgh, Initial residual = 1.0762e-05, Final residual = 9.62126e-09, No Iterations 26
diagonal:  Solving for rho, Initial residual = 0, Final residual = 0, No Iterations 0
time step continuity errors : sum local = 1.23085e-12, global = -5.02528e-13, cumulative = 1.17918e-06
DILUPBiCGStab:  Solving for epsilon, Initial residual = 0.000219501, Final residual = 9.49708e-09, No Iterations 1
DILUPBiCGStab:  Solving for k, Initial residual = 0.000156997, Final residual = 6.12893e-09, No Iterations 1
ExecutionTime = 0.51 s  ClockTime = 1 s

Courant Number mean: 0.00569982 max: 0.0260122
Time = 102.17

diagonal:  Solving for rho, Initial residual = 0, Final residual = 0, No Iterations 0
DILUPBiCGStab:  Solving for Ux, Initial residual = 0.000160212, Final residual = 4.24529e-09, No Iterations 1
DILUPBiCGStab:  Solving for Uy, Initial residual = 0.000134499, Final residual = 3.85792e-09, No Iterations 1
DILUPBiCGStab:  Solving for h, Initial residual = 0.000411154, Final residual = 2.01696e-08, No Iterations 1
DICPCG:  Solving for p_rgh, Initial residual = 0.000891856, Final residual = 8.91605e-06, No Iterations 16
diagonal:  Solving for rho, Initial residual = 0, Final residual = 0, No Iterations 0
time step continuity errors : sum local = 1.19404e-09, global = 1.84924e-10, cumulative = 1.17936e-06
DICPCG:  Solving for p_rgh, Initial residual = 1.29266e-05, Final residual = 9.53542e-09, No Iterations 27
diagonal:  Solving for rho, Initial residual = 0, Final residual = 0, No Iterations 0
time step continuity errors : sum local = 1.19628e-12, global = -4.87551e-13, cumulative = 1.17936e-06
DILUPBiCGStab:  Solving for epsilon, Initial residual = 0.000219155, Final residual = 9.48768e-09, No Iterations 1
DILUPBiCGStab:  Solving for k, Initial residual = 0.000157067, Final residual = 6.13039e-09, No Iterations 1
ExecutionTime = 0.52 s  ClockTime = 1 s

Courant Number mean: 0.00570029 max: 0.0260067
Time = 102.18

diagonal:  Solving for rho, Initial residual = 0, Final residual = 0, No Iterations 0
DILUPBiCGStab:  Solving for Ux, Initial residual = 0.000160044, Final residual = 4.22065e-09, No Iterations 1
DILUPBiCGStab:  Solving for Uy, Initial residual = 0.000134472, Final residual = 3.8616e-09, No Iterations 1
DILUPBiCGStab:  Solving for h, Initial residual = 0.000410947, Final residual = 2.02457e-08, No Iterations 1
DICPCG:  Solving for p_rgh, Initial residual = 0.000891126, Final residual = 8.86828e-06, No Iterations 16
diagonal:  Solving for rho, Initial residual = 0, Final residual = 0, No Iterations 0
time step continuity errors : sum local = 1.18997e-09, global = 1.85105e-10, cumulative = 1.17955e-06
DICPCG:  Solving for p_rgh, Initial residual = 1.28802e-05, Final residual = 9.77696e-09, No Iterations 27
diagonal:  Solving for rho, Initial residual = 0, Final residual = 0, No Iterations 0
time step continuity errors : sum local = 1.22765e-12, global = -4.89885e-13, cumulative = 1.17955e-06
DILUPBiCGStab:  Solving for epsilon, Initial residual = 0.000218807, Final residual = 9.47688e-09, No Iterations 1
DILUPBiCGStab:  Solving for k, Initial residual = 0.000157122, Final residual = 6.13115e-09, No Iterations 1
ExecutionTime = 0.52 s  ClockTime = 1 s

Courant Number mean: 0.00570078 max: 0.0260012
Time = 102.19

diagonal:  Solving for rho, Initial residual = 0, Final residual = 0, No Iterations 0
DILUPBiCGStab:  Solving for Ux, Initial residual = 0.000159878, Final residual = 4.19614e-09, No Iterations 1
DILUPBiCGStab:  Solving for Uy, Initial residual = 0.000134436, Final residual = 3.86741e-09, No Iterations 1
DILUPBiCGStab:  Solving for h, Initial residual = 0.000410778, Final residual = 2.03208e-08, No Iterations 1
DICPCG:  Solving for p_rgh, Initial residual = 0.000890307, Final residual = 8.82576e-06, No Iterations 16
diagonal:  Solving for rho, Initial residual = 0, Final residual = 0, No Iterations 0
time step continuity errors : sum local = 1.18643e-09, global = 1.85277e-10, cumulative = 1.17973e-06
DICPCG:  Solving for p_rgh, Initial residual = 1.28367e-05, Final residual = 9.98557e-09, No Iterations 27
diagonal:  Solving for rho, Initial residual = 0, Final residual = 0, No Iterations 0
time step continuity errors : sum local = 1.24625e-12, global = -4.85584e-13, cumulative = 1.17973e-06
DILUPBiCGStab:  Solving for epsilon, Initial residual = 0.000218437, Final residual = 9.46471e-09, No Iterations 1
DILUPBiCGStab:  Solving for k, Initial residual = 0.000157163, Final residual = 6.13115e-09, No Iterations 1
ExecutionTime = 0.52 s  ClockTime = 1 s

Courant Number mean: 0.00570126 max: 0.0259978
Time = 102.2

diagonal:  Solving for rho, Initial residual = 0, Final residual = 0, No Iterations 0
DILUPBiCGStab:  Solving for Ux, Initial residual = 0.000159713, Final residual = 4.17177e-09, No Iterations 1
DILUPBiCGStab:  Solving for Uy, Initial residual = 0.000134392, Final residual = 3.87366e-09, No Iterations 1
DILUPBiCGStab:  Solving for h, Initial residual = 0.000410728, Final residual = 2.0395e-08, No Iterations 1
DICPCG:  Solving for p_rgh, Initial residual = 0.000889401, Final residual = 8.78403e-06, No Iterations 16
diagonal:  Solving for rho, Initial residual = 0, Final residual = 0, No Iterations 0
time step continuity errors : sum local = 1.1829e-09, global = 1.85447e-10, cumulative = 1.17992e-06
