/*---------------------------------------------------------------------------*\
  =========                 |
  \\      /  F ield         | OpenFOAM: The Open Source CFD Toolbox
   \\    /   O peration     | Website:  https://openfoam.org
    \\  /    A nd           | Version:  6
     \\/     M anipulation  |
\*---------------------------------------------------------------------------*/
Build  : 6-f934eabb0d52
Exec   : buoyantPimpleFoam -case /home/mamitsu/OpenFOAM/mamitsu-6/run/aircond5/Case/case3
Date   : May 15 2019
Time   : 17:26:10
Host   : "mamitsu-desktop"
PID    : 5813
I/O    : uncollated
Case   : /home/mamitsu/OpenFOAM/mamitsu-6/run/aircond5/Case/case3
nProcs : 1
sigFpe : Enabling floating point exception trapping (FOAM_SIGFPE).
fileModificationChecking : Monitoring run-time modified files using timeStampMaster (fileModificationSkew 10)
allowSystemOperations : Allowing user-supplied system call operations

// * * * * * * * * * * * * * * * * * * * * * * * * * * * * * * * * * * * * * //
Create time

Create mesh for time = 100


PIMPLE: No convergence criteria found


PIMPLE: Operating solver in PISO mode

Reading thermophysical properties

Selecting thermodynamics package
{
    type            heRhoThermo;
    mixture         pureMixture;
    transport       const;
    thermo          hConst;
    equationOfState perfectGas;
    specie          specie;
    energy          sensibleEnthalpy;
}

Reading field U

Reading/calculating face flux field phi

Creating turbulence model

Selecting turbulence model type RAS
Selecting RAS turbulence model kEpsilon
RAS
{
    RASModel        kEpsilon;
    turbulence      on;
    printCoeffs     on;
    Cmu             0.09;
    C1              1.44;
    C2              1.92;
    C3              0;
    sigmak          1;
    sigmaEps        1.3;
}


Reading g

Reading hRef
Calculating field g.h

Reading field p_rgh

Creating field dpdt

Creating field kinetic energy K

No MRF models present

Radiation model not active: radiationProperties not found
Selecting radiationModel none
No finite volume options present
Courant Number mean: 0.00444639 max: 0.0206424

Starting time loop

Courant Number mean: 0.00444639 max: 0.0206424
Time = 100.01

diagonal:  Solving for rho, Initial residual = 0, Final residual = 0, No Iterations 0
DILUPBiCGStab:  Solving for Ux, Initial residual = 0.00258824, Final residual = 7.7054e-08, No Iterations 1
DILUPBiCGStab:  Solving for Uy, Initial residual = 0.101895, Final residual = 5.66468e-07, No Iterations 1
DILUPBiCGStab:  Solving for h, Initial residual = 0.000158042, Final residual = 4.76323e-09, No Iterations 1
DICPCG:  Solving for p_rgh, Initial residual = 0.957583, Final residual = 0.00598395, No Iterations 21
diagonal:  Solving for rho, Initial residual = 0, Final residual = 0, No Iterations 0
time step continuity errors : sum local = 6.9274e-06, global = 1.08655e-07, cumulative = 1.08655e-07
DICPCG:  Solving for p_rgh, Initial residual = 0.0305948, Final residual = 5.75137e-09, No Iterations 38
diagonal:  Solving for rho, Initial residual = 0, Final residual = 0, No Iterations 0
time step continuity errors : sum local = 3.34925e-09, global = 3.34925e-09, cumulative = 1.12004e-07
DILUPBiCGStab:  Solving for epsilon, Initial residual = 0.0109696, Final residual = 3.3637e-11, No Iterations 1
DILUPBiCGStab:  Solving for k, Initial residual = 0.000933144, Final residual = 7.98007e-08, No Iterations 1
ExecutionTime = 0 s  ClockTime = 0 s

Courant Number mean: 0.00446344 max: 0.0206426
Time = 100.02

diagonal:  Solving for rho, Initial residual = 0, Final residual = 0, No Iterations 0
DILUPBiCGStab:  Solving for Ux, Initial residual = 0.0324092, Final residual = 5.99852e-07, No Iterations 1
DILUPBiCGStab:  Solving for Uy, Initial residual = 0.0245633, Final residual = 4.6709e-07, No Iterations 1
DILUPBiCGStab:  Solving for h, Initial residual = 0.00046492, Final residual = 4.13285e-08, No Iterations 1
DICPCG:  Solving for p_rgh, Initial residual = 0.411659, Final residual = 0.00347278, No Iterations 24
diagonal:  Solving for rho, Initial residual = 0, Final residual = 0, No Iterations 0
time step continuity errors : sum local = 8.2493e-07, global = -5.41541e-09, cumulative = 1.06589e-07
DICPCG:  Solving for p_rgh, Initial residual = 0.00771801, Final residual = 7.79677e-09, No Iterations 37
diagonal:  Solving for rho, Initial residual = 0, Final residual = 0, No Iterations 0
time step continuity errors : sum local = 2.45425e-09, global = 2.05871e-09, cumulative = 1.08647e-07
DILUPBiCGStab:  Solving for epsilon, Initial residual = 0.000472792, Final residual = 3.11316e-08, No Iterations 1
DILUPBiCGStab:  Solving for k, Initial residual = 0.000629673, Final residual = 3.41064e-08, No Iterations 1
ExecutionTime = 0.01 s  ClockTime = 0 s

Courant Number mean: 0.00445228 max: 0.0201535
Time = 100.03

diagonal:  Solving for rho, Initial residual = 0, Final residual = 0, No Iterations 0
DILUPBiCGStab:  Solving for Ux, Initial residual = 0.0149786, Final residual = 1.47206e-07, No Iterations 1
DILUPBiCGStab:  Solving for Uy, Initial residual = 0.0114964, Final residual = 2.78774e-07, No Iterations 1
DILUPBiCGStab:  Solving for h, Initial residual = 0.00117511, Final residual = 4.11651e-08, No Iterations 1
DICPCG:  Solving for p_rgh, Initial residual = 0.141553, Final residual = 0.00110879, No Iterations 22
diagonal:  Solving for rho, Initial residual = 0, Final residual = 0, No Iterations 0
time step continuity errors : sum local = 2.82059e-07, global = 4.53392e-10, cumulative = 1.09101e-07
DICPCG:  Solving for p_rgh, Initial residual = 0.00135244, Final residual = 4.541e-09, No Iterations 35
diagonal:  Solving for rho, Initial residual = 0, Final residual = 0, No Iterations 0
time step continuity errors : sum local = 2.12791e-09, global = 1.88196e-09, cumulative = 1.10983e-07
DILUPBiCGStab:  Solving for epsilon, Initial residual = 0.000485772, Final residual = 2.83435e-08, No Iterations 1
DILUPBiCGStab:  Solving for k, Initial residual = 0.000685064, Final residual = 4.03944e-08, No Iterations 1
ExecutionTime = 0.01 s  ClockTime = 0 s

Courant Number mean: 0.00446243 max: 0.0201935
Time = 100.04

diagonal:  Solving for rho, Initial residual = 0, Final residual = 0, No Iterations 0
DILUPBiCGStab:  Solving for Ux, Initial residual = 0.0112971, Final residual = 1.19059e-07, No Iterations 1
DILUPBiCGStab:  Solving for Uy, Initial residual = 0.0103719, Final residual = 2.42958e-07, No Iterations 1
DILUPBiCGStab:  Solving for h, Initial residual = 0.00105173, Final residual = 3.57837e-08, No Iterations 1
DICPCG:  Solving for p_rgh, Initial residual = 0.0612557, Final residual = 0.000534114, No Iterations 22
diagonal:  Solving for rho, Initial residual = 0, Final residual = 0, No Iterations 0
time step continuity errors : sum local = 1.571e-07, global = -4.04688e-10, cumulative = 1.10578e-07
DICPCG:  Solving for p_rgh, Initial residual = 0.000646023, Final residual = 9.67018e-09, No Iterations 32
diagonal:  Solving for rho, Initial residual = 0, Final residual = 0, No Iterations 0
time step continuity errors : sum local = 1.00316e-09, global = 8.69886e-10, cumulative = 1.11448e-07
DILUPBiCGStab:  Solving for epsilon, Initial residual = 0.000518773, Final residual = 2.64549e-08, No Iterations 1
DILUPBiCGStab:  Solving for k, Initial residual = 0.000781885, Final residual = 4.96403e-08, No Iterations 1
ExecutionTime = 0.01 s  ClockTime = 0 s

Courant Number mean: 0.00448976 max: 0.0203016
Time = 100.05

diagonal:  Solving for rho, Initial residual = 0, Final residual = 0, No Iterations 0
DILUPBiCGStab:  Solving for Ux, Initial residual = 0.0216368, Final residual = 1.81056e-07, No Iterations 1
DILUPBiCGStab:  Solving for Uy, Initial residual = 0.00936233, Final residual = 2.3101e-07, No Iterations 1
DILUPBiCGStab:  Solving for h, Initial residual = 0.000701736, Final residual = 3.05196e-08, No Iterations 1
DICPCG:  Solving for p_rgh, Initial residual = 0.0133654, Final residual = 7.49545e-05, No Iterations 22
diagonal:  Solving for rho, Initial residual = 0, Final residual = 0, No Iterations 0
time step continuity errors : sum local = 2.37917e-08, global = 2.47315e-11, cumulative = 1.11473e-07
DICPCG:  Solving for p_rgh, Initial residual = 0.000122306, Final residual = 9.69203e-09, No Iterations 30
diagonal:  Solving for rho, Initial residual = 0, Final residual = 0, No Iterations 0
time step continuity errors : sum local = 3.39861e-10, global = -3.39853e-10, cumulative = 1.11133e-07
DILUPBiCGStab:  Solving for epsilon, Initial residual = 0.000623532, Final residual = 2.82632e-08, No Iterations 1
DILUPBiCGStab:  Solving for k, Initial residual = 0.000877781, Final residual = 5.92082e-08, No Iterations 1
ExecutionTime = 0.01 s  ClockTime = 0 s

Courant Number mean: 0.00452197 max: 0.0213876
Time = 100.06

diagonal:  Solving for rho, Initial residual = 0, Final residual = 0, No Iterations 0
DILUPBiCGStab:  Solving for Ux, Initial residual = 0.0206628, Final residual = 1.79794e-07, No Iterations 1
DILUPBiCGStab:  Solving for Uy, Initial residual = 0.00894828, Final residual = 2.39191e-07, No Iterations 1
DILUPBiCGStab:  Solving for h, Initial residual = 0.000357093, Final residual = 2.60223e-08, No Iterations 1
DICPCG:  Solving for p_rgh, Initial residual = 0.0410399, Final residual = 0.000257657, No Iterations 21
diagonal:  Solving for rho, Initial residual = 0, Final residual = 0, No Iterations 0
time step continuity errors : sum local = 7.72823e-08, global = -1.16861e-09, cumulative = 1.09964e-07
DICPCG:  Solving for p_rgh, Initial residual = 0.000444112, Final residual = 8.47655e-09, No Iterations 32
diagonal:  Solving for rho, Initial residual = 0, Final residual = 0, No Iterations 0
time step continuity errors : sum local = 1.43777e-09, global = -1.43777e-09, cumulative = 1.08526e-07
DILUPBiCGStab:  Solving for epsilon, Initial residual = 0.000725004, Final residual = 2.98084e-08, No Iterations 1
DILUPBiCGStab:  Solving for k, Initial residual = 0.000964209, Final residual = 6.92484e-08, No Iterations 1
ExecutionTime = 0.02 s  ClockTime = 0 s

Courant Number mean: 0.0045544 max: 0.022806
Time = 100.07

diagonal:  Solving for rho, Initial residual = 0, Final residual = 0, No Iterations 0
DILUPBiCGStab:  Solving for Ux, Initial residual = 0.013554, Final residual = 1.36449e-07, No Iterations 1
DILUPBiCGStab:  Solving for Uy, Initial residual = 0.00743214, Final residual = 2.10615e-07, No Iterations 1
DILUPBiCGStab:  Solving for h, Initial residual = 0.000701674, Final residual = 2.73686e-08, No Iterations 1
DICPCG:  Solving for p_rgh, Initial residual = 0.0731534, Final residual = 0.000671573, No Iterations 20
diagonal:  Solving for rho, Initial residual = 0, Final residual = 0, No Iterations 0
time step continuity errors : sum local = 1.71617e-07, global = -1.2749e-09, cumulative = 1.07251e-07
DICPCG:  Solving for p_rgh, Initial residual = 0.00115619, Final residual = 7.40065e-09, No Iterations 34
diagonal:  Solving for rho, Initial residual = 0, Final residual = 0, No Iterations 0
time step continuity errors : sum local = 2.22583e-09, global = -2.22583e-09, cumulative = 1.05026e-07
DILUPBiCGStab:  Solving for epsilon, Initial residual = 0.000808129, Final residual = 3.21661e-08, No Iterations 1
DILUPBiCGStab:  Solving for k, Initial residual = 0.00102215, Final residual = 7.62849e-08, No Iterations 1
ExecutionTime = 0.02 s  ClockTime = 0 s

Courant Number mean: 0.00457293 max: 0.0235398
Time = 100.08

diagonal:  Solving for rho, Initial residual = 0, Final residual = 0, No Iterations 0
DILUPBiCGStab:  Solving for Ux, Initial residual = 0.00624023, Final residual = 7.65189e-08, No Iterations 1
DILUPBiCGStab:  Solving for Uy, Initial residual = 0.00479569, Final residual = 1.31966e-07, No Iterations 1
DILUPBiCGStab:  Solving for h, Initial residual = 0.000969265, Final residual = 2.92119e-08, No Iterations 1
DICPCG:  Solving for p_rgh, Initial residual = 0.11485, Final residual = 0.000792291, No Iterations 20
diagonal:  Solving for rho, Initial residual = 0, Final residual = 0, No Iterations 0
time step continuity errors : sum local = 1.55699e-07, global = -2.17579e-09, cumulative = 1.0285e-07
DICPCG:  Solving for p_rgh, Initial residual = 0.00184021, Final residual = 6.55182e-09, No Iterations 35
diagonal:  Solving for rho, Initial residual = 0, Final residual = 0, No Iterations 0
time step continuity errors : sum local = 2.57583e-09, global = -2.57583e-09, cumulative = 1.00274e-07
DILUPBiCGStab:  Solving for epsilon, Initial residual = 0.00087031, Final residual = 3.5607e-08, No Iterations 1
DILUPBiCGStab:  Solving for k, Initial residual = 0.00104545, Final residual = 7.93682e-08, No Iterations 1
ExecutionTime = 0.02 s  ClockTime = 0 s

Courant Number mean: 0.0045755 max: 0.0236716
Time = 100.09

diagonal:  Solving for rho, Initial residual = 0, Final residual = 0, No Iterations 0
DILUPBiCGStab:  Solving for Ux, Initial residual = 0.00161003, Final residual = 3.94532e-08, No Iterations 1
DILUPBiCGStab:  Solving for Uy, Initial residual = 0.00183798, Final residual = 4.89956e-08, No Iterations 1
DILUPBiCGStab:  Solving for h, Initial residual = 0.00108834, Final residual = 3.05761e-08, No Iterations 1
DICPCG:  Solving for p_rgh, Initial residual = 0.175689, Final residual = 0.00142569, No Iterations 20
diagonal:  Solving for rho, Initial residual = 0, Final residual = 0, No Iterations 0
time step continuity errors : sum local = 1.82466e-07, global = -7.25012e-10, cumulative = 9.9549e-08
DICPCG:  Solving for p_rgh, Initial residual = 0.00227752, Final residual = 5.43184e-09, No Iterations 35
diagonal:  Solving for rho, Initial residual = 0, Final residual = 0, No Iterations 0
time step continuity errors : sum local = 2.46416e-09, global = -2.46416e-09, cumulative = 9.70848e-08
DILUPBiCGStab:  Solving for epsilon, Initial residual = 0.000917092, Final residual = 4.06817e-08, No Iterations 1
DILUPBiCGStab:  Solving for k, Initial residual = 0.0010353, Final residual = 7.90722e-08, No Iterations 1
ExecutionTime = 0.02 s  ClockTime = 0 s

Courant Number mean: 0.00456387 max: 0.0230053
Time = 100.1

diagonal:  Solving for rho, Initial residual = 0, Final residual = 0, No Iterations 0
DILUPBiCGStab:  Solving for Ux, Initial residual = 0.00385869, Final residual = 6.07937e-08, No Iterations 1
DILUPBiCGStab:  Solving for Uy, Initial residual = 0.00198582, Final residual = 5.21071e-08, No Iterations 1
DILUPBiCGStab:  Solving for h, Initial residual = 0.00104708, Final residual = 3.10447e-08, No Iterations 1
DICPCG:  Solving for p_rgh, Initial residual = 0.167276, Final residual = 0.00162485, No Iterations 20
diagonal:  Solving for rho, Initial residual = 0, Final residual = 0, No Iterations 0
time step continuity errors : sum local = 1.81335e-07, global = 3.79962e-10, cumulative = 9.74648e-08
DICPCG:  Solving for p_rgh, Initial residual = 0.0014401, Final residual = 7.6017e-09, No Iterations 33
diagonal:  Solving for rho, Initial residual = 0, Final residual = 0, No Iterations 0
time step continuity errors : sum local = 1.96737e-09, global = -1.96737e-09, cumulative = 9.54974e-08
DILUPBiCGStab:  Solving for epsilon, Initial residual = 0.000953082, Final residual = 4.74967e-08, No Iterations 1
DILUPBiCGStab:  Solving for k, Initial residual = 0.00100315, Final residual = 7.69237e-08, No Iterations 1
ExecutionTime = 0.03 s  ClockTime = 0 s

Courant Number mean: 0.00453914 max: 0.0214718
Time = 100.11

diagonal:  Solving for rho, Initial residual = 0, Final residual = 0, No Iterations 0
DILUPBiCGStab:  Solving for Ux, Initial residual = 0.00716233, Final residual = 1.14518e-07, No Iterations 1
DILUPBiCGStab:  Solving for Uy, Initial residual = 0.00413723, Final residual = 1.29048e-07, No Iterations 1
DILUPBiCGStab:  Solving for h, Initial residual = 0.000872893, Final residual = 3.06585e-08, No Iterations 1
DICPCG:  Solving for p_rgh, Initial residual = 0.0772296, Final residual = 0.000682645, No Iterations 18
diagonal:  Solving for rho, Initial residual = 0, Final residual = 0, No Iterations 0
time step continuity errors : sum local = 1.09801e-07, global = -4.43042e-09, cumulative = 9.1067e-08
DICPCG:  Solving for p_rgh, Initial residual = 0.000699943, Final residual = 6.04649e-09, No Iterations 33
diagonal:  Solving for rho, Initial residual = 0, Final residual = 0, No Iterations 0
time step continuity errors : sum local = 1.22192e-09, global = -1.22192e-09, cumulative = 8.98451e-08
DILUPBiCGStab:  Solving for epsilon, Initial residual = 0.000975474, Final residual = 5.56654e-08, No Iterations 1
DILUPBiCGStab:  Solving for k, Initial residual = 0.000955668, Final residual = 7.43385e-08, No Iterations 1
ExecutionTime = 0.03 s  ClockTime = 0 s

Courant Number mean: 0.00451024 max: 0.0204035
Time = 100.12

diagonal:  Solving for rho, Initial residual = 0, Final residual = 0, No Iterations 0
DILUPBiCGStab:  Solving for Ux, Initial residual = 0.00961137, Final residual = 1.38866e-07, No Iterations 1
DILUPBiCGStab:  Solving for Uy, Initial residual = 0.00540242, Final residual = 1.645e-07, No Iterations 1
DILUPBiCGStab:  Solving for h, Initial residual = 0.000615848, Final residual = 2.97758e-08, No Iterations 1
DICPCG:  Solving for p_rgh, Initial residual = 0.0264744, Final residual = 0.000179693, No Iterations 22
diagonal:  Solving for rho, Initial residual = 0, Final residual = 0, No Iterations 0
time step continuity errors : sum local = 3.44493e-08, global = 4.92117e-10, cumulative = 9.03372e-08
DICPCG:  Solving for p_rgh, Initial residual = 0.000207032, Final residual = 5.72658e-09, No Iterations 31
diagonal:  Solving for rho, Initial residual = 0, Final residual = 0, No Iterations 0
time step continuity errors : sum local = 3.81739e-10, global = -3.81739e-10, cumulative = 8.99554e-08
DILUPBiCGStab:  Solving for epsilon, Initial residual = 0.000995176, Final residual = 6.44858e-08, No Iterations 1
DILUPBiCGStab:  Solving for k, Initial residual = 0.000908659, Final residual = 7.25235e-08, No Iterations 1
ExecutionTime = 0.03 s  ClockTime = 0 s

Courant Number mean: 0.00448795 max: 0.0203045
Time = 100.13

diagonal:  Solving for rho, Initial residual = 0, Final residual = 0, No Iterations 0
DILUPBiCGStab:  Solving for Ux, Initial residual = 0.0104122, Final residual = 1.38103e-07, No Iterations 1
DILUPBiCGStab:  Solving for Uy, Initial residual = 0.00581594, Final residual = 1.68642e-07, No Iterations 1
DILUPBiCGStab:  Solving for h, Initial residual = 0.000347673, Final residual = 2.88218e-08, No Iterations 1
DICPCG:  Solving for p_rgh, Initial residual = 0.0254029, Final residual = 0.000169503, No Iterations 21
diagonal:  Solving for rho, Initial residual = 0, Final residual = 0, No Iterations 0
time step continuity errors : sum local = 3.40246e-08, global = 2.12824e-10, cumulative = 9.01683e-08
DICPCG:  Solving for p_rgh, Initial residual = 0.000252811, Final residual = 9.04753e-09, No Iterations 31
diagonal:  Solving for rho, Initial residual = 0, Final residual = 0, No Iterations 0
time step continuity errors : sum local = 4.12634e-10, global = 4.11928e-10, cumulative = 9.05802e-08
DILUPBiCGStab:  Solving for epsilon, Initial residual = 0.00101517, Final residual = 7.2977e-08, No Iterations 1
DILUPBiCGStab:  Solving for k, Initial residual = 0.000869258, Final residual = 7.22472e-08, No Iterations 1
ExecutionTime = 0.03 s  ClockTime = 0 s

Courant Number mean: 0.00447215 max: 0.0205496
Time = 100.14

diagonal:  Solving for rho, Initial residual = 0, Final residual = 0, No Iterations 0
DILUPBiCGStab:  Solving for Ux, Initial residual = 0.00935739, Final residual = 1.21366e-07, No Iterations 1
DILUPBiCGStab:  Solving for Uy, Initial residual = 0.00527225, Final residual = 1.46301e-07, No Iterations 1
DILUPBiCGStab:  Solving for h, Initial residual = 0.000536827, Final residual = 3.09058e-08, No Iterations 1
DICPCG:  Solving for p_rgh, Initial residual = 0.0504298, Final residual = 0.000317228, No Iterations 20
diagonal:  Solving for rho, Initial residual = 0, Final residual = 0, No Iterations 0
time step continuity errors : sum local = 5.95396e-08, global = 1.2478e-10, cumulative = 9.0705e-08
DICPCG:  Solving for p_rgh, Initial residual = 0.000573322, Final residual = 4.91478e-09, No Iterations 33
diagonal:  Solving for rho, Initial residual = 0, Final residual = 0, No Iterations 0
time step continuity errors : sum local = 1.04276e-09, global = 1.04276e-09, cumulative = 9.17477e-08
DILUPBiCGStab:  Solving for epsilon, Initial residual = 0.00103761, Final residual = 8.01484e-08, No Iterations 1
DILUPBiCGStab:  Solving for k, Initial residual = 0.000842888, Final residual = 7.26747e-08, No Iterations 1
ExecutionTime = 0.03 s  ClockTime = 0 s

Courant Number mean: 0.00446127 max: 0.0207663
Time = 100.15

diagonal:  Solving for rho, Initial residual = 0, Final residual = 0, No Iterations 0
DILUPBiCGStab:  Solving for Ux, Initial residual = 0.00683693, Final residual = 9.3873e-08, No Iterations 1
DILUPBiCGStab:  Solving for Uy, Initial residual = 0.00395056, Final residual = 1.057e-07, No Iterations 1
DILUPBiCGStab:  Solving for h, Initial residual = 0.000730057, Final residual = 3.25373e-08, No Iterations 1
DICPCG:  Solving for p_rgh, Initial residual = 0.0764109, Final residual = 0.000573269, No Iterations 20
diagonal:  Solving for rho, Initial residual = 0, Final residual = 0, No Iterations 0
time step continuity errors : sum local = 9.21666e-08, global = 1.41974e-09, cumulative = 9.31675e-08
DICPCG:  Solving for p_rgh, Initial residual = 0.00110037, Final residual = 5.0161e-09, No Iterations 35
diagonal:  Solving for rho, Initial residual = 0, Final residual = 0, No Iterations 0
time step continuity errors : sum local = 1.43248e-09, global = 1.43248e-09, cumulative = 9.45999e-08
DILUPBiCGStab:  Solving for epsilon, Initial residual = 0.00106398, Final residual = 8.53474e-08, No Iterations 1
DILUPBiCGStab:  Solving for k, Initial residual = 0.000831988, Final residual = 7.35524e-08, No Iterations 1
ExecutionTime = 0.04 s  ClockTime = 0 s

Courant Number mean: 0.00445542 max: 0.0208826
Time = 100.16

diagonal:  Solving for rho, Initial residual = 0, Final residual = 0, No Iterations 0
DILUPBiCGStab:  Solving for Ux, Initial residual = 0.00354551, Final residual = 6.02923e-08, No Iterations 1
DILUPBiCGStab:  Solving for Uy, Initial residual = 0.00213845, Final residual = 5.64995e-08, No Iterations 1
DILUPBiCGStab:  Solving for h, Initial residual = 0.000850581, Final residual = 3.3294e-08, No Iterations 1
DICPCG:  Solving for p_rgh, Initial residual = 0.110955, Final residual = 0.000925884, No Iterations 20
diagonal:  Solving for rho, Initial residual = 0, Final residual = 0, No Iterations 0
time step continuity errors : sum local = 1.14235e-07, global = 1.59447e-09, cumulative = 9.61944e-08
DICPCG:  Solving for p_rgh, Initial residual = 0.00156596, Final residual = 6.40943e-09, No Iterations 35
diagonal:  Solving for rho, Initial residual = 0, Final residual = 0, No Iterations 0
time step continuity errors : sum local = 1.54853e-09, global = 1.54853e-09, cumulative = 9.77429e-08
DILUPBiCGStab:  Solving for epsilon, Initial residual = 0.00109764, Final residual = 8.82827e-08, No Iterations 1
DILUPBiCGStab:  Solving for k, Initial residual = 0.000836598, Final residual = 7.52601e-08, No Iterations 1
ExecutionTime = 0.04 s  ClockTime = 0 s

Courant Number mean: 0.0044542 max: 0.0208992
Time = 100.17

diagonal:  Solving for rho, Initial residual = 0, Final residual = 0, No Iterations 0
DILUPBiCGStab:  Solving for Ux, Initial residual = 0.000524613, Final residual = 3.46427e-08, No Iterations 1
DILUPBiCGStab:  Solving for Uy, Initial residual = 0.00059778, Final residual = 2.09789e-08, No Iterations 1
DILUPBiCGStab:  Solving for h, Initial residual = 0.000886925, Final residual = 3.30576e-08, No Iterations 1
DICPCG:  Solving for p_rgh, Initial residual = 0.126121, Final residual = 0.00113317, No Iterations 20
diagonal:  Solving for rho, Initial residual = 0, Final residual = 0, No Iterations 0
time step continuity errors : sum local = 1.15385e-07, global = 1.60374e-09, cumulative = 9.93467e-08
DICPCG:  Solving for p_rgh, Initial residual = 0.00108134, Final residual = 7.13288e-09, No Iterations 34
diagonal:  Solving for rho, Initial residual = 0, Final residual = 0, No Iterations 0
time step continuity errors : sum local = 1.40503e-09, global = 1.40503e-09, cumulative = 1.00752e-07
DILUPBiCGStab:  Solving for epsilon, Initial residual = 0.0011359, Final residual = 8.94642e-08, No Iterations 1
DILUPBiCGStab:  Solving for k, Initial residual = 0.000854382, Final residual = 7.66966e-08, No Iterations 1
ExecutionTime = 0.04 s  ClockTime = 0 s

Courant Number mean: 0.0044569 max: 0.0208318
Time = 100.18

diagonal:  Solving for rho, Initial residual = 0, Final residual = 0, No Iterations 0
DILUPBiCGStab:  Solving for Ux, Initial residual = 0.0031877, Final residual = 4.99305e-08, No Iterations 1
DILUPBiCGStab:  Solving for Uy, Initial residual = 0.00164772, Final residual = 5.32383e-08, No Iterations 1
DILUPBiCGStab:  Solving for h, Initial residual = 0.000843556, Final residual = 3.19839e-08, No Iterations 1
DICPCG:  Solving for p_rgh, Initial residual = 0.0729108, Final residual = 0.000636945, No Iterations 16
diagonal:  Solving for rho, Initial residual = 0, Final residual = 0, No Iterations 0
time step continuity errors : sum local = 8.83707e-08, global = 3.43233e-09, cumulative = 1.04184e-07
DICPCG:  Solving for p_rgh, Initial residual = 0.000679225, Final residual = 6.80685e-09, No Iterations 32
diagonal:  Solving for rho, Initial residual = 0, Final residual = 0, No Iterations 0
time step continuity errors : sum local = 1.05601e-09, global = 1.05601e-09, cumulative = 1.0524e-07
DILUPBiCGStab:  Solving for epsilon, Initial residual = 0.00117641, Final residual = 8.92074e-08, No Iterations 1
DILUPBiCGStab:  Solving for k, Initial residual = 0.000881131, Final residual = 7.77236e-08, No Iterations 1
ExecutionTime = 0.04 s  ClockTime = 0 s

Courant Number mean: 0.00446265 max: 0.0207076
Time = 100.19

diagonal:  Solving for rho, Initial residual = 0, Final residual = 0, No Iterations 0
DILUPBiCGStab:  Solving for Ux, Initial residual = 0.00526583, Final residual = 6.44966e-08, No Iterations 1
DILUPBiCGStab:  Solving for Uy, Initial residual = 0.00288865, Final residual = 8.40594e-08, No Iterations 1
DILUPBiCGStab:  Solving for h, Initial residual = 0.000737075, Final residual = 3.03916e-08, No Iterations 1
DICPCG:  Solving for p_rgh, Initial residual = 0.0373665, Final residual = 0.000309155, No Iterations 18
diagonal:  Solving for rho, Initial residual = 0, Final residual = 0, No Iterations 0
time step continuity errors : sum local = 5.11028e-08, global = -1.75508e-09, cumulative = 1.03485e-07
DICPCG:  Solving for p_rgh, Initial residual = 0.000352911, Final residual = 9.86902e-09, No Iterations 31
diagonal:  Solving for rho, Initial residual = 0, Final residual = 0, No Iterations 0
time step continuity errors : sum local = 5.81857e-10, global = 5.81857e-10, cumulative = 1.04067e-07
DILUPBiCGStab:  Solving for epsilon, Initial residual = 0.00121644, Final residual = 8.80723e-08, No Iterations 1
DILUPBiCGStab:  Solving for k, Initial residual = 0.000911459, Final residual = 7.84372e-08, No Iterations 1
ExecutionTime = 0.05 s  ClockTime = 0 s

Courant Number mean: 0.0044712 max: 0.020559
Time = 100.2

diagonal:  Solving for rho, Initial residual = 0, Final residual = 0, No Iterations 0
DILUPBiCGStab:  Solving for Ux, Initial residual = 0.00634971, Final residual = 7.41917e-08, No Iterations 1
DILUPBiCGStab:  Solving for Uy, Initial residual = 0.0035691, Final residual = 1.00189e-07, No Iterations 1
DILUPBiCGStab:  Solving for h, Initial residual = 0.000592402, Final residual = 2.85776e-08, No Iterations 1
DICPCG:  Solving for p_rgh, Initial residual = 0.00985668, Final residual = 7.7853e-05, No Iterations 22
diagonal:  Solving for rho, Initial residual = 0, Final residual = 0, No Iterations 0
time step continuity errors : sum local = 1.38891e-08, global = 1.33454e-10, cumulative = 1.042e-07
DICPCG:  Solving for p_rgh, Initial residual = 8.63848e-05, Final residual = 5.577e-09, No Iterations 30
diagonal:  Solving for rho, Initial residual = 0, Final residual = 0, No Iterations 0
time step continuity errors : sum local = 7.36728e-11, global = 7.36728e-11, cumulative = 1.04274e-07
DILUPBiCGStab:  Solving for epsilon, Initial residual = 0.00125341, Final residual = 8.67346e-08, No Iterations 1
DILUPBiCGStab:  Solving for k, Initial residual = 0.000940398, Final residual = 7.89385e-08, No Iterations 1
ExecutionTime = 0.05 s  ClockTime = 0 s

Courant Number mean: 0.00448482 max: 0.020418
Time = 100.21

diagonal:  Solving for rho, Initial residual = 0, Final residual = 0, No Iterations 0
DILUPBiCGStab:  Solving for Ux, Initial residual = 0.00634798, Final residual = 7.49978e-08, No Iterations 1
DILUPBiCGStab:  Solving for Uy, Initial residual = 0.00360388, Final residual = 9.7924e-08, No Iterations 1
DILUPBiCGStab:  Solving for h, Initial residual = 0.000438523, Final residual = 2.68284e-08, No Iterations 1
DICPCG:  Solving for p_rgh, Initial residual = 0.0228383, Final residual = 0.000205214, No Iterations 18
diagonal:  Solving for rho, Initial residual = 0, Final residual = 0, No Iterations 0
time step continuity errors : sum local = 3.62468e-08, global = 1.36646e-10, cumulative = 1.04411e-07
DICPCG:  Solving for p_rgh, Initial residual = 0.000284939, Final residual = 9.99786e-09, No Iterations 31
diagonal:  Solving for rho, Initial residual = 0, Final residual = 0, No Iterations 0
time step continuity errors : sum local = 3.82658e-10, global = -3.82516e-10, cumulative = 1.04028e-07
DILUPBiCGStab:  Solving for epsilon, Initial residual = 0.00128505, Final residual = 8.58078e-08, No Iterations 1
DILUPBiCGStab:  Solving for k, Initial residual = 0.000968361, Final residual = 7.92803e-08, No Iterations 1
ExecutionTime = 0.05 s  ClockTime = 0 s

Courant Number mean: 0.00449873 max: 0.0203117
Time = 100.22

diagonal:  Solving for rho, Initial residual = 0, Final residual = 0, No Iterations 0
DILUPBiCGStab:  Solving for Ux, Initial residual = 0.00537661, Final residual = 6.63205e-08, No Iterations 1
DILUPBiCGStab:  Solving for Uy, Initial residual = 0.00306926, Final residual = 7.94386e-08, No Iterations 1
DILUPBiCGStab:  Solving for h, Initial residual = 0.000356037, Final residual = 2.56465e-08, No Iterations 1
DICPCG:  Solving for p_rgh, Initial residual = 0.0386063, Final residual = 0.000271517, No Iterations 20
diagonal:  Solving for rho, Initial residual = 0, Final residual = 0, No Iterations 0
time step continuity errors : sum local = 4.4303e-08, global = 6.26006e-10, cumulative = 1.04654e-07
DICPCG:  Solving for p_rgh, Initial residual = 0.000447102, Final residual = 6.06253e-09, No Iterations 32
diagonal:  Solving for rho, Initial residual = 0, Final residual = 0, No Iterations 0
time step continuity errors : sum local = 7.20307e-10, global = -7.20307e-10, cumulative = 1.03934e-07
DILUPBiCGStab:  Solving for epsilon, Initial residual = 0.00130526, Final residual = 8.56967e-08, No Iterations 1
DILUPBiCGStab:  Solving for k, Initial residual = 0.000986396, Final residual = 7.94724e-08, No Iterations 1
ExecutionTime = 0.06 s  ClockTime = 0 s

Courant Number mean: 0.00450925 max: 0.0203409
Time = 100.23

diagonal:  Solving for rho, Initial residual = 0, Final residual = 0, No Iterations 0
DILUPBiCGStab:  Solving for Ux, Initial residual = 0.00371286, Final residual = 5.13706e-08, No Iterations 1
DILUPBiCGStab:  Solving for Uy, Initial residual = 0.00213257, Final residual = 5.06788e-08, No Iterations 1
DILUPBiCGStab:  Solving for h, Initial residual = 0.000457456, Final residual = 2.57875e-08, No Iterations 1
DICPCG:  Solving for p_rgh, Initial residual = 0.0555061, Final residual = 0.000405139, No Iterations 20
diagonal:  Solving for rho, Initial residual = 0, Final residual = 0, No Iterations 0
time step continuity errors : sum local = 5.76987e-08, global = -3.9877e-10, cumulative = 1.03535e-07
DICPCG:  Solving for p_rgh, Initial residual = 0.000667833, Final residual = 6.22487e-09, No Iterations 34
diagonal:  Solving for rho, Initial residual = 0, Final residual = 0, No Iterations 0
time step continuity errors : sum local = 9.01096e-10, global = -9.01096e-10, cumulative = 1.02634e-07
DILUPBiCGStab:  Solving for epsilon, Initial residual = 0.00132044, Final residual = 8.66794e-08, No Iterations 1
DILUPBiCGStab:  Solving for k, Initial residual = 0.000999452, Final residual = 8.06885e-08, No Iterations 1
ExecutionTime = 0.06 s  ClockTime = 0 s

Courant Number mean: 0.0045139 max: 0.0203534
Time = 100.24

diagonal:  Solving for rho, Initial residual = 0, Final residual = 0, No Iterations 0
DILUPBiCGStab:  Solving for Ux, Initial residual = 0.00172935, Final residual = 3.72381e-08, No Iterations 1
DILUPBiCGStab:  Solving for Uy, Initial residual = 0.00107961, Final residual = 2.82803e-08, No Iterations 1
DILUPBiCGStab:  Solving for h, Initial residual = 0.000517952, Final residual = 2.58398e-08, No Iterations 1
DICPCG:  Solving for p_rgh, Initial residual = 0.0701211, Final residual = 0.000542325, No Iterations 20
diagonal:  Solving for rho, Initial residual = 0, Final residual = 0, No Iterations 0
time step continuity errors : sum local = 6.40529e-08, global = -5.20286e-10, cumulative = 1.02114e-07
DICPCG:  Solving for p_rgh, Initial residual = 0.000906913, Final residual = 6.67496e-09, No Iterations 34
diagonal:  Solving for rho, Initial residual = 0, Final residual = 0, No Iterations 0
time step continuity errors : sum local = 9.1595e-10, global = -9.1595e-10, cumulative = 1.01198e-07
DILUPBiCGStab:  Solving for epsilon, Initial residual = 0.00133097, Final residual = 8.87646e-08, No Iterations 1
DILUPBiCGStab:  Solving for k, Initial residual = 0.00101277, Final residual = 8.20039e-08, No Iterations 1
ExecutionTime = 0.06 s  ClockTime = 0 s

Courant Number mean: 0.00451248 max: 0.0203484
Time = 100.25

diagonal:  Solving for rho, Initial residual = 0, Final residual = 0, No Iterations 0
DILUPBiCGStab:  Solving for Ux, Initial residual = 0.00101284, Final residual = 3.22657e-08, No Iterations 1
DILUPBiCGStab:  Solving for Uy, Initial residual = 0.000683591, Final residual = 1.91572e-08, No Iterations 1
DILUPBiCGStab:  Solving for h, Initial residual = 0.000521863, Final residual = 2.5636e-08, No Iterations 1
DICPCG:  Solving for p_rgh, Initial residual = 0.0780135, Final residual = 0.000675044, No Iterations 20
diagonal:  Solving for rho, Initial residual = 0, Final residual = 0, No Iterations 0
time step continuity errors : sum local = 6.33825e-08, global = -4.91254e-10, cumulative = 1.00706e-07
DICPCG:  Solving for p_rgh, Initial residual = 0.000814302, Final residual = 6.19086e-09, No Iterations 33
diagonal:  Solving for rho, Initial residual = 0, Final residual = 0, No Iterations 0
time step continuity errors : sum local = 7.83376e-10, global = -7.83376e-10, cumulative = 9.9923e-08
DILUPBiCGStab:  Solving for epsilon, Initial residual = 0.00134789, Final residual = 9.18055e-08, No Iterations 1
DILUPBiCGStab:  Solving for k, Initial residual = 0.00102139, Final residual = 8.34006e-08, No Iterations 1
ExecutionTime = 0.06 s  ClockTime = 0 s

Courant Number mean: 0.00450616 max: 0.0204241
Time = 100.26

diagonal:  Solving for rho, Initial residual = 0, Final residual = 0, No Iterations 0
DILUPBiCGStab:  Solving for Ux, Initial residual = 0.00242182, Final residual = 4.04901e-08, No Iterations 1
DILUPBiCGStab:  Solving for Uy, Initial residual = 0.00136162, Final residual = 3.54423e-08, No Iterations 1
DILUPBiCGStab:  Solving for h, Initial residual = 0.000475476, Final residual = 2.51771e-08, No Iterations 1
DICPCG:  Solving for p_rgh, Initial residual = 0.0551433, Final residual = 0.000392115, No Iterations 16
diagonal:  Solving for rho, Initial residual = 0, Final residual = 0, No Iterations 0
time step continuity errors : sum local = 3.84064e-08, global = -3.67709e-10, cumulative = 9.95553e-08
DICPCG:  Solving for p_rgh, Initial residual = 0.000444385, Final residual = 9.42813e-09, No Iterations 32
diagonal:  Solving for rho, Initial residual = 0, Final residual = 0, No Iterations 0
time step continuity errors : sum local = 5.43023e-10, global = -5.43023e-10, cumulative = 9.90123e-08
DILUPBiCGStab:  Solving for epsilon, Initial residual = 0.00136442, Final residual = 9.545e-08, No Iterations 1
DILUPBiCGStab:  Solving for k, Initial residual = 0.00102578, Final residual = 8.47177e-08, No Iterations 1
ExecutionTime = 0.06 s  ClockTime = 0 s

Courant Number mean: 0.00449684 max: 0.0205513
Time = 100.27

diagonal:  Solving for rho, Initial residual = 0, Final residual = 0, No Iterations 0
DILUPBiCGStab:  Solving for Ux, Initial residual = 0.00343039, Final residual = 4.79441e-08, No Iterations 1
DILUPBiCGStab:  Solving for Uy, Initial residual = 0.00192042, Final residual = 5.09888e-08, No Iterations 1
DILUPBiCGStab:  Solving for h, Initial residual = 0.000393222, Final residual = 2.45321e-08, No Iterations 1
DICPCG:  Solving for p_rgh, Initial residual = 0.0252973, Final residual = 0.000203723, No Iterations 21
diagonal:  Solving for rho, Initial residual = 0, Final residual = 0, No Iterations 0
time step continuity errors : sum local = 2.29135e-08, global = 5.86329e-10, cumulative = 9.95986e-08
DICPCG:  Solving for p_rgh, Initial residual = 0.000224582, Final residual = 6.48453e-09, No Iterations 31
diagonal:  Solving for rho, Initial residual = 0, Final residual = 0, No Iterations 0
time step continuity errors : sum local = 2.46289e-10, global = -2.46289e-10, cumulative = 9.93523e-08
DILUPBiCGStab:  Solving for epsilon, Initial residual = 0.00137878, Final residual = 9.92039e-08, No Iterations 1
DILUPBiCGStab:  Solving for k, Initial residual = 0.00102776, Final residual = 8.58601e-08, No Iterations 1
ExecutionTime = 0.06 s  ClockTime = 0 s

Courant Number mean: 0.0044867 max: 0.0206845
Time = 100.28

diagonal:  Solving for rho, Initial residual = 0, Final residual = 0, No Iterations 0
DILUPBiCGStab:  Solving for Ux, Initial residual = 0.00383048, Final residual = 5.17061e-08, No Iterations 1
DILUPBiCGStab:  Solving for Uy, Initial residual = 0.00214258, Final residual = 5.61007e-08, No Iterations 1
DILUPBiCGStab:  Solving for h, Initial residual = 0.000358241, Final residual = 2.42091e-08, No Iterations 1
DICPCG:  Solving for p_rgh, Initial residual = 0.00979203, Final residual = 6.38054e-05, No Iterations 22
diagonal:  Solving for rho, Initial residual = 0, Final residual = 0, No Iterations 0
time step continuity errors : sum local = 7.83216e-09, global = 3.62524e-10, cumulative = 9.97149e-08
DICPCG:  Solving for p_rgh, Initial residual = 8.91002e-05, Final residual = 6.13082e-09, No Iterations 30
diagonal:  Solving for rho, Initial residual = 0, Final residual = 0, No Iterations 0
time step continuity errors : sum local = 5.31563e-11, global = 5.26274e-11, cumulative = 9.97675e-08
DILUPBiCGStab:  Solving for epsilon, Initial residual = 0.00139173, Final residual = 1.02622e-07, No Iterations 1
DILUPBiCGStab:  Solving for k, Initial residual = 0.00102936, Final residual = 8.67851e-08, No Iterations 1
ExecutionTime = 0.07 s  ClockTime = 0 s

Courant Number mean: 0.00447765 max: 0.0208055
Time = 100.29

diagonal:  Solving for rho, Initial residual = 0, Final residual = 0, No Iterations 0
DILUPBiCGStab:  Solving for Ux, Initial residual = 0.00359675, Final residual = 4.89318e-08, No Iterations 1
DILUPBiCGStab:  Solving for Uy, Initial residual = 0.00202123, Final residual = 5.20045e-08, No Iterations 1
DILUPBiCGStab:  Solving for h, Initial residual = 0.000429547, Final residual = 2.44276e-08, No Iterations 1
DICPCG:  Solving for p_rgh, Initial residual = 0.0253428, Final residual = 0.000211572, No Iterations 18
diagonal:  Solving for rho, Initial residual = 0, Final residual = 0, No Iterations 0
time step continuity errors : sum local = 2.48473e-08, global = 6.61259e-10, cumulative = 1.00429e-07
DICPCG:  Solving for p_rgh, Initial residual = 0.000302856, Final residual = 6.26506e-09, No Iterations 32
diagonal:  Solving for rho, Initial residual = 0, Final residual = 0, No Iterations 0
time step continuity errors : sum local = 3.06321e-10, global = 3.06274e-10, cumulative = 1.00735e-07
DILUPBiCGStab:  Solving for epsilon, Initial residual = 0.00140404, Final residual = 1.05331e-07, No Iterations 1
DILUPBiCGStab:  Solving for k, Initial residual = 0.00103199, Final residual = 8.74647e-08, No Iterations 1
ExecutionTime = 0.07 s  ClockTime = 0 s

Courant Number mean: 0.00447102 max: 0.0209008
Time = 100.3

diagonal:  Solving for rho, Initial residual = 0, Final residual = 0, No Iterations 0
DILUPBiCGStab:  Solving for Ux, Initial residual = 0.00284652, Final residual = 4.22708e-08, No Iterations 1
DILUPBiCGStab:  Solving for Uy, Initial residual = 0.00161782, Final residual = 4.11002e-08, No Iterations 1
DILUPBiCGStab:  Solving for h, Initial residual = 0.000505945, Final residual = 2.46548e-08, No Iterations 1
DICPCG:  Solving for p_rgh, Initial residual = 0.0378349, Final residual = 0.000261876, No Iterations 20
diagonal:  Solving for rho, Initial residual = 0, Final residual = 0, No Iterations 0
time step continuity errors : sum local = 2.8413e-08, global = 1.94608e-10, cumulative = 1.0093e-07
DICPCG:  Solving for p_rgh, Initial residual = 0.000434914, Final residual = 7.20587e-09, No Iterations 33
diagonal:  Solving for rho, Initial residual = 0, Final residual = 0, No Iterations 0
time step continuity errors : sum local = 4.80143e-10, global = 4.80143e-10, cumulative = 1.0141e-07
DILUPBiCGStab:  Solving for epsilon, Initial residual = 0.00141617, Final residual = 1.07104e-07, No Iterations 1
DILUPBiCGStab:  Solving for k, Initial residual = 0.0010365, Final residual = 8.78282e-08, No Iterations 1
ExecutionTime = 0.07 s  ClockTime = 0 s

Courant Number mean: 0.00446708 max: 0.0209621
Time = 100.31

diagonal:  Solving for rho, Initial residual = 0, Final residual = 0, No Iterations 0
DILUPBiCGStab:  Solving for Ux, Initial residual = 0.00179239, Final residual = 3.50371e-08, No Iterations 1
DILUPBiCGStab:  Solving for Uy, Initial residual = 0.00105468, Final residual = 2.64689e-08, No Iterations 1
DILUPBiCGStab:  Solving for h, Initial residual = 0.00055889, Final residual = 2.4674e-08, No Iterations 1
DICPCG:  Solving for p_rgh, Initial residual = 0.0505947, Final residual = 0.000427371, No Iterations 20
diagonal:  Solving for rho, Initial residual = 0, Final residual = 0, No Iterations 0
time step continuity errors : sum local = 4.09815e-08, global = 8.74895e-10, cumulative = 1.02285e-07
DICPCG:  Solving for p_rgh, Initial residual = 0.000562311, Final residual = 7.35197e-09, No Iterations 33
diagonal:  Solving for rho, Initial residual = 0, Final residual = 0, No Iterations 0
time step continuity errors : sum local = 5.56788e-10, global = 5.56788e-10, cumulative = 1.02841e-07
DILUPBiCGStab:  Solving for epsilon, Initial residual = 0.00142836, Final residual = 1.07914e-07, No Iterations 1
DILUPBiCGStab:  Solving for k, Initial residual = 0.00104319, Final residual = 8.79759e-08, No Iterations 1
ExecutionTime = 0.07 s  ClockTime = 0 s

Courant Number mean: 0.00446615 max: 0.0209877
Time = 100.32

diagonal:  Solving for rho, Initial residual = 0, Final residual = 0, No Iterations 0
DILUPBiCGStab:  Solving for Ux, Initial residual = 0.000745267, Final residual = 2.77986e-08, No Iterations 1
DILUPBiCGStab:  Solving for Uy, Initial residual = 0.000564931, Final residual = 1.63265e-08, No Iterations 1
DILUPBiCGStab:  Solving for h, Initial residual = 0.000582113, Final residual = 2.44614e-08, No Iterations 1
DICPCG:  Solving for p_rgh, Initial residual = 0.0491829, Final residual = 0.000470797, No Iterations 20
diagonal:  Solving for rho, Initial residual = 0, Final residual = 0, No Iterations 0
time step continuity errors : sum local = 4.61222e-08, global = 8.50729e-10, cumulative = 1.03692e-07
DICPCG:  Solving for p_rgh, Initial residual = 0.000517318, Final residual = 4.68866e-09, No Iterations 33
diagonal:  Solving for rho, Initial residual = 0, Final residual = 0, No Iterations 0
time step continuity errors : sum local = 5.36207e-10, global = 5.36207e-10, cumulative = 1.04228e-07
DILUPBiCGStab:  Solving for epsilon, Initial residual = 0.00144064, Final residual = 1.0796e-07, No Iterations 1
DILUPBiCGStab:  Solving for k, Initial residual = 0.00105247, Final residual = 8.81894e-08, No Iterations 1
ExecutionTime = 0.07 s  ClockTime = 0 s

Courant Number mean: 0.00446833 max: 0.0209817
Time = 100.33

diagonal:  Solving for rho, Initial residual = 0, Final residual = 0, No Iterations 0
DILUPBiCGStab:  Solving for Ux, Initial residual = 0.00105114, Final residual = 2.94822e-08, No Iterations 1
DILUPBiCGStab:  Solving for Uy, Initial residual = 0.000627536, Final residual = 1.74966e-08, No Iterations 1
DILUPBiCGStab:  Solving for h, Initial residual = 0.000575513, Final residual = 2.40646e-08, No Iterations 1
DICPCG:  Solving for p_rgh, Initial residual = 0.0361243, Final residual = 0.000356361, No Iterations 18
diagonal:  Solving for rho, Initial residual = 0, Final residual = 0, No Iterations 0
time step continuity errors : sum local = 4.02002e-08, global = 1.88691e-09, cumulative = 1.06115e-07
DICPCG:  Solving for p_rgh, Initial residual = 0.000388594, Final residual = 9.84652e-09, No Iterations 32
diagonal:  Solving for rho, Initial residual = 0, Final residual = 0, No Iterations 0
time step continuity errors : sum local = 4.33721e-10, global = 4.33721e-10, cumulative = 1.06549e-07
DILUPBiCGStab:  Solving for epsilon, Initial residual = 0.00145513, Final residual = 1.07279e-07, No Iterations 1
DILUPBiCGStab:  Solving for k, Initial residual = 0.0010639, Final residual = 8.82184e-08, No Iterations 1
ExecutionTime = 0.08 s  ClockTime = 0 s

Courant Number mean: 0.00447282 max: 0.0209528
Time = 100.34

diagonal:  Solving for rho, Initial residual = 0, Final residual = 0, No Iterations 0
DILUPBiCGStab:  Solving for Ux, Initial residual = 0.00191208, Final residual = 3.51343e-08, No Iterations 1
DILUPBiCGStab:  Solving for Uy, Initial residual = 0.00100772, Final residual = 2.46608e-08, No Iterations 1
DILUPBiCGStab:  Solving for h, Initial residual = 0.000543731, Final residual = 2.34915e-08, No Iterations 1
DICPCG:  Solving for p_rgh, Initial residual = 0.0222992, Final residual = 0.00019625, No Iterations 16
diagonal:  Solving for rho, Initial residual = 0, Final residual = 0, No Iterations 0
time step continuity errors : sum local = 2.44304e-08, global = -5.71825e-10, cumulative = 1.05977e-07
DICPCG:  Solving for p_rgh, Initial residual = 0.000226315, Final residual = 9.20657e-09, No Iterations 31
diagonal:  Solving for rho, Initial residual = 0, Final residual = 0, No Iterations 0
time step continuity errors : sum local = 2.76002e-10, global = 2.76002e-10, cumulative = 1.06253e-07
DILUPBiCGStab:  Solving for epsilon, Initial residual = 0.00146995, Final residual = 1.06146e-07, No Iterations 1
DILUPBiCGStab:  Solving for k, Initial residual = 0.00107608, Final residual = 8.81655e-08, No Iterations 1
ExecutionTime = 0.08 s  ClockTime = 0 s

Courant Number mean: 0.00447892 max: 0.0209119
Time = 100.35

diagonal:  Solving for rho, Initial residual = 0, Final residual = 0, No Iterations 0
DILUPBiCGStab:  Solving for Ux, Initial residual = 0.00243416, Final residual = 3.91141e-08, No Iterations 1
DILUPBiCGStab:  Solving for Uy, Initial residual = 0.0012554, Final residual = 2.90974e-08, No Iterations 1
DILUPBiCGStab:  Solving for h, Initial residual = 0.000495416, Final residual = 2.28218e-08, No Iterations 1
DICPCG:  Solving for p_rgh, Initial residual = 0.00922659, Final residual = 6.77658e-05, No Iterations 22
diagonal:  Solving for rho, Initial residual = 0, Final residual = 0, No Iterations 0
time step continuity errors : sum local = 8.94113e-09, global = 2.28191e-10, cumulative = 1.06481e-07
DICPCG:  Solving for p_rgh, Initial residual = 7.80636e-05, Final residual = 9.09254e-09, No Iterations 29
diagonal:  Solving for rho, Initial residual = 0, Final residual = 0, No Iterations 0
time step continuity errors : sum local = 9.46053e-11, global = 9.46053e-11, cumulative = 1.06576e-07
DILUPBiCGStab:  Solving for epsilon, Initial residual = 0.0014852, Final residual = 1.04862e-07, No Iterations 1
DILUPBiCGStab:  Solving for k, Initial residual = 0.00108797, Final residual = 8.80803e-08, No Iterations 1
ExecutionTime = 0.08 s  ClockTime = 0 s

Courant Number mean: 0.00448555 max: 0.0208706
Time = 100.36

diagonal:  Solving for rho, Initial residual = 0, Final residual = 0, No Iterations 0
DILUPBiCGStab:  Solving for Ux, Initial residual = 0.00256522, Final residual = 4.0191e-08, No Iterations 1
DILUPBiCGStab:  Solving for Uy, Initial residual = 0.00134173, Final residual = 2.9633e-08, No Iterations 1
DILUPBiCGStab:  Solving for h, Initial residual = 0.000440852, Final residual = 2.2112e-08, No Iterations 1
DICPCG:  Solving for p_rgh, Initial residual = 0.00787876, Final residual = 7.56445e-05, No Iterations 21
diagonal:  Solving for rho, Initial residual = 0, Final residual = 0, No Iterations 0
time step continuity errors : sum local = 1.00385e-08, global = 2.89742e-10, cumulative = 1.06866e-07
DICPCG:  Solving for p_rgh, Initial residual = 9.96804e-05, Final residual = 8.9439e-09, No Iterations 30
diagonal:  Solving for rho, Initial residual = 0, Final residual = 0, No Iterations 0
time step continuity errors : sum local = 7.86771e-11, global = -7.85198e-11, cumulative = 1.06787e-07
DILUPBiCGStab:  Solving for epsilon, Initial residual = 0.00149895, Final residual = 1.037e-07, No Iterations 1
DILUPBiCGStab:  Solving for k, Initial residual = 0.0010985, Final residual = 8.80158e-08, No Iterations 1
ExecutionTime = 0.08 s  ClockTime = 0 s

Courant Number mean: 0.00449167 max: 0.0208391
Time = 100.37

diagonal:  Solving for rho, Initial residual = 0, Final residual = 0, No Iterations 0
DILUPBiCGStab:  Solving for Ux, Initial residual = 0.00232955, Final residual = 3.83726e-08, No Iterations 1
DILUPBiCGStab:  Solving for Uy, Initial residual = 0.00123011, Final residual = 2.6492e-08, No Iterations 1
DILUPBiCGStab:  Solving for h, Initial residual = 0.00039269, Final residual = 2.14696e-08, No Iterations 1
DICPCG:  Solving for p_rgh, Initial residual = 0.0156852, Final residual = 0.000154458, No Iterations 19
diagonal:  Solving for rho, Initial residual = 0, Final residual = 0, No Iterations 0
time step continuity errors : sum local = 1.99394e-08, global = 1.20726e-10, cumulative = 1.06908e-07
DICPCG:  Solving for p_rgh, Initial residual = 0.000207664, Final residual = 6.76788e-09, No Iterations 30
diagonal:  Solving for rho, Initial residual = 0, Final residual = 0, No Iterations 0
time step continuity errors : sum local = 2.17057e-10, global = -2.17057e-10, cumulative = 1.06691e-07
DILUPBiCGStab:  Solving for epsilon, Initial residual = 0.00151076, Final residual = 1.02864e-07, No Iterations 1
DILUPBiCGStab:  Solving for k, Initial residual = 0.00110696, Final residual = 8.79927e-08, No Iterations 1
ExecutionTime = 0.09 s  ClockTime = 0 s

Courant Number mean: 0.00449643 max: 0.0208247
Time = 100.38

diagonal:  Solving for rho, Initial residual = 0, Final residual = 0, No Iterations 0
DILUPBiCGStab:  Solving for Ux, Initial residual = 0.00181006, Final residual = 3.43472e-08, No Iterations 1
DILUPBiCGStab:  Solving for Uy, Initial residual = 0.00096356, Final residual = 2.1639e-08, No Iterations 1
DILUPBiCGStab:  Solving for h, Initial residual = 0.000362667, Final residual = 2.10093e-08, No Iterations 1
DICPCG:  Solving for p_rgh, Initial residual = 0.0223699, Final residual = 0.000178023, No Iterations 20
diagonal:  Solving for rho, Initial residual = 0, Final residual = 0, No Iterations 0
time step continuity errors : sum local = 2.16292e-08, global = 7.12694e-11, cumulative = 1.06762e-07
DICPCG:  Solving for p_rgh, Initial residual = 0.000251589, Final residual = 9.29881e-09, No Iterations 31
diagonal:  Solving for rho, Initial residual = 0, Final residual = 0, No Iterations 0
time step continuity errors : sum local = 3.03367e-10, global = -3.03367e-10, cumulative = 1.06459e-07
DILUPBiCGStab:  Solving for epsilon, Initial residual = 0.00152042, Final residual = 1.02467e-07, No Iterations 1
DILUPBiCGStab:  Solving for k, Initial residual = 0.00111295, Final residual = 8.80218e-08, No Iterations 1
ExecutionTime = 0.09 s  ClockTime = 0 s

Courant Number mean: 0.00449938 max: 0.0208315
Time = 100.39

diagonal:  Solving for rho, Initial residual = 0, Final residual = 0, No Iterations 0
DILUPBiCGStab:  Solving for Ux, Initial residual = 0.00113696, Final residual = 2.90621e-08, No Iterations 1
DILUPBiCGStab:  Solving for Uy, Initial residual = 0.000650525, Final residual = 1.65912e-08, No Iterations 1
DILUPBiCGStab:  Solving for h, Initial residual = 0.000349143, Final residual = 2.06946e-08, No Iterations 1
DICPCG:  Solving for p_rgh, Initial residual = 0.0268014, Final residual = 0.000215066, No Iterations 20
diagonal:  Solving for rho, Initial residual = 0, Final residual = 0, No Iterations 0
time step continuity errors : sum local = 2.42249e-08, global = 3.15926e-11, cumulative = 1.0649e-07
DICPCG:  Solving for p_rgh, Initial residual = 0.000294404, Final residual = 7.26309e-09, No Iterations 32
diagonal:  Solving for rho, Initial residual = 0, Final residual = 0, No Iterations 0
time step continuity errors : sum local = 3.30382e-10, global = -3.30382e-10, cumulative = 1.0616e-07
DILUPBiCGStab:  Solving for epsilon, Initial residual = 0.00152802, Final residual = 1.02528e-07, No Iterations 1
DILUPBiCGStab:  Solving for k, Initial residual = 0.00111638, Final residual = 8.80931e-08, No Iterations 1
ExecutionTime = 0.09 s  ClockTime = 0 s

Courant Number mean: 0.00450037 max: 0.0208592
Time = 100.4

diagonal:  Solving for rho, Initial residual = 0, Final residual = 0, No Iterations 0
DILUPBiCGStab:  Solving for Ux, Initial residual = 0.000522387, Final residual = 2.35629e-08, No Iterations 1
DILUPBiCGStab:  Solving for Uy, Initial residual = 0.00048522, Final residual = 1.31855e-08, No Iterations 1
DILUPBiCGStab:  Solving for h, Initial residual = 0.000347786, Final residual = 2.04676e-08, No Iterations 1
DICPCG:  Solving for p_rgh, Initial residual = 0.0273133, Final residual = 0.000216904, No Iterations 20
diagonal:  Solving for rho, Initial residual = 0, Final residual = 0, No Iterations 0
time step continuity errors : sum local = 2.25243e-08, global = 4.25601e-11, cumulative = 1.06203e-07
DICPCG:  Solving for p_rgh, Initial residual = 0.000293372, Final residual = 5.75787e-09, No Iterations 32
diagonal:  Solving for rho, Initial residual = 0, Final residual = 0, No Iterations 0
time step continuity errors : sum local = 3.01292e-10, global = -3.01292e-10, cumulative = 1.05901e-07
DILUPBiCGStab:  Solving for epsilon, Initial residual = 0.00153375, Final residual = 1.02977e-07, No Iterations 1
DILUPBiCGStab:  Solving for k, Initial residual = 0.00111757, Final residual = 8.81833e-08, No Iterations 1
ExecutionTime = 0.09 s  ClockTime = 0 s

Courant Number mean: 0.00449961 max: 0.0209048
Time = 100.41

diagonal:  Solving for rho, Initial residual = 0, Final residual = 0, No Iterations 0
DILUPBiCGStab:  Solving for Ux, Initial residual = 0.000944691, Final residual = 2.68381e-08, No Iterations 1
DILUPBiCGStab:  Solving for Uy, Initial residual = 0.000629235, Final residual = 1.49564e-08, No Iterations 1
DILUPBiCGStab:  Solving for h, Initial residual = 0.000348035, Final residual = 2.0246e-08, No Iterations 1
DICPCG:  Solving for p_rgh, Initial residual = 0.0234103, Final residual = 0.000195434, No Iterations 18
diagonal:  Solving for rho, Initial residual = 0, Final residual = 0, No Iterations 0
time step continuity errors : sum local = 1.90853e-08, global = -4.52185e-10, cumulative = 1.05449e-07
DICPCG:  Solving for p_rgh, Initial residual = 0.000249741, Final residual = 6.0142e-09, No Iterations 32
diagonal:  Solving for rho, Initial residual = 0, Final residual = 0, No Iterations 0
time step continuity errors : sum local = 2.27707e-10, global = -2.27707e-10, cumulative = 1.05221e-07
DILUPBiCGStab:  Solving for epsilon, Initial residual = 0.00153802, Final residual = 1.03682e-07, No Iterations 1
DILUPBiCGStab:  Solving for k, Initial residual = 0.00111706, Final residual = 8.826e-08, No Iterations 1
ExecutionTime = 0.1 s  ClockTime = 0 s

Courant Number mean: 0.00449761 max: 0.0209626
Time = 100.42

diagonal:  Solving for rho, Initial residual = 0, Final residual = 0, No Iterations 0
DILUPBiCGStab:  Solving for Ux, Initial residual = 0.00132718, Final residual = 2.96813e-08, No Iterations 1
DILUPBiCGStab:  Solving for Uy, Initial residual = 0.000799584, Final residual = 1.8679e-08, No Iterations 1
DILUPBiCGStab:  Solving for h, Initial residual = 0.00035804, Final residual = 2.00847e-08, No Iterations 1
DICPCG:  Solving for p_rgh, Initial residual = 0.0155009, Final residual = 0.000148937, No Iterations 16
diagonal:  Solving for rho, Initial residual = 0, Final residual = 0, No Iterations 0
time step continuity errors : sum local = 1.37304e-08, global = 9.25722e-10, cumulative = 1.06147e-07
DICPCG:  Solving for p_rgh, Initial residual = 0.00017052, Final residual = 8.56729e-09, No Iterations 31
diagonal:  Solving for rho, Initial residual = 0, Final residual = 0, No Iterations 0
time step continuity errors : sum local = 1.27026e-10, global = -1.27026e-10, cumulative = 1.0602e-07
DILUPBiCGStab:  Solving for epsilon, Initial residual = 0.00154128, Final residual = 1.04475e-07, No Iterations 1
DILUPBiCGStab:  Solving for k, Initial residual = 0.00111586, Final residual = 8.8291e-08, No Iterations 1
ExecutionTime = 0.1 s  ClockTime = 0 s

Courant Number mean: 0.00449496 max: 0.0210259
Time = 100.43

diagonal:  Solving for rho, Initial residual = 0, Final residual = 0, No Iterations 0
DILUPBiCGStab:  Solving for Ux, Initial residual = 0.00152558, Final residual = 3.08474e-08, No Iterations 1
DILUPBiCGStab:  Solving for Uy, Initial residual = 0.000902407, Final residual = 2.11118e-08, No Iterations 1
DILUPBiCGStab:  Solving for h, Initial residual = 0.000378276, Final residual = 2.0016e-08, No Iterations 1
DICPCG:  Solving for p_rgh, Initial residual = 0.00514529, Final residual = 4.83736e-05, No Iterations 21
diagonal:  Solving for rho, Initial residual = 0, Final residual = 0, No Iterations 0
time step continuity errors : sum local = 4.61865e-09, global = 3.62228e-10, cumulative = 1.06382e-07
DICPCG:  Solving for p_rgh, Initial residual = 6.53873e-05, Final residual = 9.64953e-09, No Iterations 29
diagonal:  Solving for rho, Initial residual = 0, Final residual = 0, No Iterations 0
time step continuity errors : sum local = 1.84027e-11, global = -1.83962e-11, cumulative = 1.06364e-07
DILUPBiCGStab:  Solving for epsilon, Initial residual = 0.00154395, Final residual = 1.05189e-07, No Iterations 1
DILUPBiCGStab:  Solving for k, Initial residual = 0.00111438, Final residual = 8.83155e-08, No Iterations 1
ExecutionTime = 0.1 s  ClockTime = 0 s

Courant Number mean: 0.0044923 max: 0.0210878
Time = 100.44

diagonal:  Solving for rho, Initial residual = 0, Final residual = 0, No Iterations 0
DILUPBiCGStab:  Solving for Ux, Initial residual = 0.00151738, Final residual = 3.06465e-08, No Iterations 1
DILUPBiCGStab:  Solving for Uy, Initial residual = 0.000899014, Final residual = 2.10691e-08, No Iterations 1
DILUPBiCGStab:  Solving for h, Initial residual = 0.00040388, Final residual = 2.00085e-08, No Iterations 1
DICPCG:  Solving for p_rgh, Initial residual = 0.0100081, Final residual = 6.022e-05, No Iterations 18
diagonal:  Solving for rho, Initial residual = 0, Final residual = 0, No Iterations 0
time step continuity errors : sum local = 5.72533e-09, global = 3.65352e-10, cumulative = 1.06729e-07
DICPCG:  Solving for p_rgh, Initial residual = 9.04606e-05, Final residual = 9.49997e-09, No Iterations 30
diagonal:  Solving for rho, Initial residual = 0, Final residual = 0, No Iterations 0
time step continuity errors : sum local = 7.99455e-11, global = 7.98848e-11, cumulative = 1.06809e-07
DILUPBiCGStab:  Solving for epsilon, Initial residual = 0.00154642, Final residual = 1.05672e-07, No Iterations 1
DILUPBiCGStab:  Solving for k, Initial residual = 0.00111598, Final residual = 8.83161e-08, No Iterations 1
ExecutionTime = 0.1 s  ClockTime = 0 s

Courant Number mean: 0.00449017 max: 0.0211428
Time = 100.45

diagonal:  Solving for rho, Initial residual = 0, Final residual = 0, No Iterations 0
DILUPBiCGStab:  Solving for Ux, Initial residual = 0.00132876, Final residual = 2.92335e-08, No Iterations 1
DILUPBiCGStab:  Solving for Uy, Initial residual = 0.000800028, Final residual = 1.84905e-08, No Iterations 1
DILUPBiCGStab:  Solving for h, Initial residual = 0.000432221, Final residual = 2.00559e-08, No Iterations 1
DICPCG:  Solving for p_rgh, Initial residual = 0.0153656, Final residual = 0.000123518, No Iterations 20
diagonal:  Solving for rho, Initial residual = 0, Final residual = 0, No Iterations 0
time step continuity errors : sum local = 1.14441e-08, global = 3.13298e-10, cumulative = 1.07122e-07
DICPCG:  Solving for p_rgh, Initial residual = 0.000155199, Final residual = 9.41048e-09, No Iterations 31
diagonal:  Solving for rho, Initial residual = 0, Final residual = 0, No Iterations 0
time step continuity errors : sum local = 1.53558e-10, global = 1.53558e-10, cumulative = 1.07276e-07
DILUPBiCGStab:  Solving for epsilon, Initial residual = 0.00154892, Final residual = 1.05824e-07, No Iterations 1
DILUPBiCGStab:  Solving for k, Initial residual = 0.00112075, Final residual = 8.82182e-08, No Iterations 1
ExecutionTime = 0.1 s  ClockTime = 0 s

Courant Number mean: 0.00448897 max: 0.021187
Time = 100.46

diagonal:  Solving for rho, Initial residual = 0, Final residual = 0, No Iterations 0
DILUPBiCGStab:  Solving for Ux, Initial residual = 0.00102445, Final residual = 2.67592e-08, No Iterations 1
DILUPBiCGStab:  Solving for Uy, Initial residual = 0.000654057, Final residual = 1.52345e-08, No Iterations 1
DILUPBiCGStab:  Solving for h, Initial residual = 0.000453974, Final residual = 2.00506e-08, No Iterations 1
DICPCG:  Solving for p_rgh, Initial residual = 0.0175703, Final residual = 0.000170777, No Iterations 20
diagonal:  Solving for rho, Initial residual = 0, Final residual = 0, No Iterations 0
time step continuity errors : sum local = 1.66648e-08, global = 6.60466e-10, cumulative = 1.07936e-07
DICPCG:  Solving for p_rgh, Initial residual = 0.000206032, Final residual = 4.53555e-09, No Iterations 32
diagonal:  Solving for rho, Initial residual = 0, Final residual = 0, No Iterations 0
time step continuity errors : sum local = 1.94107e-10, global = 1.94107e-10, cumulative = 1.08131e-07
DILUPBiCGStab:  Solving for epsilon, Initial residual = 0.00155208, Final residual = 1.05602e-07, No Iterations 1
DILUPBiCGStab:  Solving for k, Initial residual = 0.00112562, Final residual = 8.80231e-08, No Iterations 1
ExecutionTime = 0.11 s  ClockTime = 0 s

Courant Number mean: 0.00448888 max: 0.0212188
Time = 100.47

diagonal:  Solving for rho, Initial residual = 0, Final residual = 0, No Iterations 0
DILUPBiCGStab:  Solving for Ux, Initial residual = 0.0006934, Final residual = 2.41057e-08, No Iterations 1
DILUPBiCGStab:  Solving for Uy, Initial residual = 0.000511861, Final residual = 1.23375e-08, No Iterations 1
DILUPBiCGStab:  Solving for h, Initial residual = 0.000466617, Final residual = 1.99775e-08, No Iterations 1
DICPCG:  Solving for p_rgh, Initial residual = 0.0176053, Final residual = 0.000104409, No Iterations 21
diagonal:  Solving for rho, Initial residual = 0, Final residual = 0, No Iterations 0
time step continuity errors : sum local = 1.06659e-08, global = 2.48035e-10, cumulative = 1.08379e-07
DICPCG:  Solving for p_rgh, Initial residual = 0.000136015, Final residual = 6.57525e-09, No Iterations 31
diagonal:  Solving for rho, Initial residual = 0, Final residual = 0, No Iterations 0
time step continuity errors : sum local = 1.99239e-10, global = 1.99239e-10, cumulative = 1.08578e-07
DILUPBiCGStab:  Solving for epsilon, Initial residual = 0.0015555, Final residual = 1.0502e-07, No Iterations 1
DILUPBiCGStab:  Solving for k, Initial residual = 0.0011306, Final residual = 8.77423e-08, No Iterations 1
ExecutionTime = 0.11 s  ClockTime = 0 s

Courant Number mean: 0.00448987 max: 0.0212389
Time = 100.48

diagonal:  Solving for rho, Initial residual = 0, Final residual = 0, No Iterations 0
DILUPBiCGStab:  Solving for Ux, Initial residual = 0.000545138, Final residual = 2.32678e-08, No Iterations 1
DILUPBiCGStab:  Solving for Uy, Initial residual = 0.00045145, Final residual = 1.15137e-08, No Iterations 1
DILUPBiCGStab:  Solving for h, Initial residual = 0.000468584, Final residual = 1.98039e-08, No Iterations 1
DICPCG:  Solving for p_rgh, Initial residual = 0.0149796, Final residual = 0.000144347, No Iterations 20
diagonal:  Solving for rho, Initial residual = 0, Final residual = 0, No Iterations 0
time step continuity errors : sum local = 1.54796e-08, global = 5.99572e-10, cumulative = 1.09177e-07
DICPCG:  Solving for p_rgh, Initial residual = 0.000167202, Final residual = 6.76242e-09, No Iterations 31
diagonal:  Solving for rho, Initial residual = 0, Final residual = 0, No Iterations 0
time step continuity errors : sum local = 1.72545e-10, global = 1.72545e-10, cumulative = 1.0935e-07
DILUPBiCGStab:  Solving for epsilon, Initial residual = 0.00155893, Final residual = 1.04141e-07, No Iterations 1
DILUPBiCGStab:  Solving for k, Initial residual = 0.00113559, Final residual = 8.73917e-08, No Iterations 1
ExecutionTime = 0.11 s  ClockTime = 0 s

Courant Number mean: 0.00449177 max: 0.0212495
Time = 100.49

diagonal:  Solving for rho, Initial residual = 0, Final residual = 0, No Iterations 0
DILUPBiCGStab:  Solving for Ux, Initial residual = 0.000858513, Final residual = 2.62953e-08, No Iterations 1
DILUPBiCGStab:  Solving for Uy, Initial residual = 0.000503152, Final residual = 1.2029e-08, No Iterations 1
DILUPBiCGStab:  Solving for h, Initial residual = 0.000461016, Final residual = 1.95329e-08, No Iterations 1
DICPCG:  Solving for p_rgh, Initial residual = 0.0107647, Final residual = 9.20887e-05, No Iterations 16
diagonal:  Solving for rho, Initial residual = 0, Final residual = 0, No Iterations 0
time step continuity errors : sum local = 1.05606e-08, global = 2.2558e-10, cumulative = 1.09576e-07
DICPCG:  Solving for p_rgh, Initial residual = 0.000109991, Final residual = 7.81852e-09, No Iterations 30
diagonal:  Solving for rho, Initial residual = 0, Final residual = 0, No Iterations 0
time step continuity errors : sum local = 1.22298e-10, global = 1.22298e-10, cumulative = 1.09698e-07
DILUPBiCGStab:  Solving for epsilon, Initial residual = 0.00156218, Final residual = 1.03061e-07, No Iterations 1
DILUPBiCGStab:  Solving for k, Initial residual = 0.00114044, Final residual = 8.69905e-08, No Iterations 1
ExecutionTime = 0.11 s  ClockTime = 0 s

Courant Number mean: 0.00449433 max: 0.0212543
Time = 100.5

diagonal:  Solving for rho, Initial residual = 0, Final residual = 0, No Iterations 0
DILUPBiCGStab:  Solving for Ux, Initial residual = 0.0010865, Final residual = 2.81704e-08, No Iterations 1
DILUPBiCGStab:  Solving for Uy, Initial residual = 0.000568883, Final residual = 1.27198e-08, No Iterations 1
DILUPBiCGStab:  Solving for h, Initial residual = 0.000446418, Final residual = 1.91836e-08, No Iterations 1
DICPCG:  Solving for p_rgh, Initial residual = 0.00586496, Final residual = 5.70107e-05, No Iterations 21
diagonal:  Solving for rho, Initial residual = 0, Final residual = 0, No Iterations 0
time step continuity errors : sum local = 6.59566e-09, global = 2.26932e-10, cumulative = 1.09925e-07
DICPCG:  Solving for p_rgh, Initial residual = 6.49611e-05, Final residual = 9.79458e-09, No Iterations 29
diagonal:  Solving for rho, Initial residual = 0, Final residual = 0, No Iterations 0
time step continuity errors : sum local = 5.93183e-11, global = 5.93158e-11, cumulative = 1.09984e-07
DILUPBiCGStab:  Solving for epsilon, Initial residual = 0.00156501, Final residual = 1.01947e-07, No Iterations 1
DILUPBiCGStab:  Solving for k, Initial residual = 0.0011453, Final residual = 8.65563e-08, No Iterations 1
ExecutionTime = 0.12 s  ClockTime = 0 s

Courant Number mean: 0.00449715 max: 0.0212574
Time = 100.51

diagonal:  Solving for rho, Initial residual = 0, Final residual = 0, No Iterations 0
DILUPBiCGStab:  Solving for Ux, Initial residual = 0.00118235, Final residual = 2.88237e-08, No Iterations 1
DILUPBiCGStab:  Solving for Uy, Initial residual = 0.000606223, Final residual = 1.3145e-08, No Iterations 1
DILUPBiCGStab:  Solving for h, Initial residual = 0.000428023, Final residual = 1.87848e-08, No Iterations 1
DICPCG:  Solving for p_rgh, Initial residual = 0.00204655, Final residual = 1.28171e-05, No Iterations 23
diagonal:  Solving for rho, Initial residual = 0, Final residual = 0, No Iterations 0
time step continuity errors : sum local = 1.87554e-09, global = 3.05291e-10, cumulative = 1.10289e-07
DICPCG:  Solving for p_rgh, Initial residual = 2.48665e-05, Final residual = 5.93497e-09, No Iterations 27
diagonal:  Solving for rho, Initial residual = 0, Final residual = 0, No Iterations 0
time step continuity errors : sum local = 5.23166e-12, global = -4.79943e-12, cumulative = 1.10285e-07
DILUPBiCGStab:  Solving for epsilon, Initial residual = 0.00156724, Final residual = 1.00869e-07, No Iterations 1
DILUPBiCGStab:  Solving for k, Initial residual = 0.00114982, Final residual = 8.61037e-08, No Iterations 1
ExecutionTime = 0.12 s  ClockTime = 0 s

Courant Number mean: 0.00449986 max: 0.0212627
Time = 100.52

diagonal:  Solving for rho, Initial residual = 0, Final residual = 0, No Iterations 0
DILUPBiCGStab:  Solving for Ux, Initial residual = 0.00114429, Final residual = 2.83599e-08, No Iterations 1
DILUPBiCGStab:  Solving for Uy, Initial residual = 0.000587344, Final residual = 1.28084e-08, No Iterations 1
DILUPBiCGStab:  Solving for h, Initial residual = 0.000409648, Final residual = 1.83775e-08, No Iterations 1
DICPCG:  Solving for p_rgh, Initial residual = 0.00546397, Final residual = 4.07113e-05, No Iterations 19
diagonal:  Solving for rho, Initial residual = 0, Final residual = 0, No Iterations 0
time step continuity errors : sum local = 4.9306e-09, global = 3.07851e-10, cumulative = 1.10592e-07
DICPCG:  Solving for p_rgh, Initial residual = 5.73877e-05, Final residual = 9.12129e-09, No Iterations 29
diagonal:  Solving for rho, Initial residual = 0, Final residual = 0, No Iterations 0
time step continuity errors : sum local = 5.97779e-11, global = -5.97617e-11, cumulative = 1.10533e-07
DILUPBiCGStab:  Solving for epsilon, Initial residual = 0.0015687, Final residual = 9.98863e-08, No Iterations 1
DILUPBiCGStab:  Solving for k, Initial residual = 0.00115362, Final residual = 8.56422e-08, No Iterations 1
ExecutionTime = 0.12 s  ClockTime = 0 s

Courant Number mean: 0.00450218 max: 0.0212731
Time = 100.53

diagonal:  Solving for rho, Initial residual = 0, Final residual = 0, No Iterations 0
DILUPBiCGStab:  Solving for Ux, Initial residual = 0.000995948, Final residual = 2.69351e-08, No Iterations 1
DILUPBiCGStab:  Solving for Uy, Initial residual = 0.000533052, Final residual = 1.20052e-08, No Iterations 1
DILUPBiCGStab:  Solving for h, Initial residual = 0.00039574, Final residual = 1.80263e-08, No Iterations 1
DICPCG:  Solving for p_rgh, Initial residual = 0.00843854, Final residual = 7.38581e-05, No Iterations 20
diagonal:  Solving for rho, Initial residual = 0, Final residual = 0, No Iterations 0
time step continuity errors : sum local = 8.55668e-09, global = 2.52582e-10, cumulative = 1.10785e-07
DICPCG:  Solving for p_rgh, Initial residual = 9.42333e-05, Final residual = 8.93639e-09, No Iterations 30
diagonal:  Solving for rho, Initial residual = 0, Final residual = 0, No Iterations 0
time step continuity errors : sum local = 9.80291e-11, global = -9.80291e-11, cumulative = 1.10687e-07
DILUPBiCGStab:  Solving for epsilon, Initial residual = 0.00156933, Final residual = 9.90734e-08, No Iterations 1
DILUPBiCGStab:  Solving for k, Initial residual = 0.00115658, Final residual = 8.52152e-08, No Iterations 1
ExecutionTime = 0.12 s  ClockTime = 0 s

Courant Number mean: 0.00450399 max: 0.0212907
Time = 100.54

diagonal:  Solving for rho, Initial residual = 0, Final residual = 0, No Iterations 0
DILUPBiCGStab:  Solving for Ux, Initial residual = 0.000779541, Final residual = 2.47416e-08, No Iterations 1
DILUPBiCGStab:  Solving for Uy, Initial residual = 0.000481571, Final residual = 1.11944e-08, No Iterations 1
DILUPBiCGStab:  Solving for h, Initial residual = 0.000387055, Final residual = 1.77459e-08, No Iterations 1
DICPCG:  Solving for p_rgh, Initial residual = 0.010176, Final residual = 9.17253e-05, No Iterations 20
diagonal:  Solving for rho, Initial residual = 0, Final residual = 0, No Iterations 0
time step continuity errors : sum local = 1.02047e-08, global = 2.26492e-10, cumulative = 1.10914e-07
DICPCG:  Solving for p_rgh, Initial residual = 0.000113622, Final residual = 4.13246e-09, No Iterations 31
diagonal:  Solving for rho, Initial residual = 0, Final residual = 0, No Iterations 0
time step continuity errors : sum local = 1.15676e-10, global = -1.15676e-10, cumulative = 1.10798e-07
DILUPBiCGStab:  Solving for epsilon, Initial residual = 0.00156913, Final residual = 9.84486e-08, No Iterations 1
DILUPBiCGStab:  Solving for k, Initial residual = 0.00115862, Final residual = 8.48177e-08, No Iterations 1
ExecutionTime = 0.13 s  ClockTime = 0 s

Courant Number mean: 0.00450522 max: 0.021316
Time = 100.55

diagonal:  Solving for rho, Initial residual = 0, Final residual = 0, No Iterations 0
DILUPBiCGStab:  Solving for Ux, Initial residual = 0.000567375, Final residual = 2.25579e-08, No Iterations 1
DILUPBiCGStab:  Solving for Uy, Initial residual = 0.000447794, Final residual = 1.0498e-08, No Iterations 1
DILUPBiCGStab:  Solving for h, Initial residual = 0.000383408, Final residual = 1.75473e-08, No Iterations 1
DICPCG:  Solving for p_rgh, Initial residual = 0.0104627, Final residual = 9.71365e-05, No Iterations 20
diagonal:  Solving for rho, Initial residual = 0, Final residual = 0, No Iterations 0
time step continuity errors : sum local = 1.04331e-08, global = 2.02009e-10, cumulative = 1.11e-07
DICPCG:  Solving for p_rgh, Initial residual = 0.000116121, Final residual = 5.06701e-09, No Iterations 31
diagonal:  Solving for rho, Initial residual = 0, Final residual = 0, No Iterations 0
time step continuity errors : sum local = 1.12481e-10, global = -1.12481e-10, cumulative = 1.10888e-07
DILUPBiCGStab:  Solving for epsilon, Initial residual = 0.00156816, Final residual = 9.79788e-08, No Iterations 1
DILUPBiCGStab:  Solving for k, Initial residual = 0.00115974, Final residual = 8.44117e-08, No Iterations 1
ExecutionTime = 0.13 s  ClockTime = 0 s

Courant Number mean: 0.0045058 max: 0.0213484
Time = 100.56

diagonal:  Solving for rho, Initial residual = 0, Final residual = 0, No Iterations 0
DILUPBiCGStab:  Solving for Ux, Initial residual = 0.000597564, Final residual = 2.22886e-08, No Iterations 1
DILUPBiCGStab:  Solving for Uy, Initial residual = 0.000468517, Final residual = 1.0381e-08, No Iterations 1
DILUPBiCGStab:  Solving for h, Initial residual = 0.000384333, Final residual = 1.7425e-08, No Iterations 1
DICPCG:  Solving for p_rgh, Initial residual = 0.00920922, Final residual = 8.60634e-05, No Iterations 20
diagonal:  Solving for rho, Initial residual = 0, Final residual = 0, No Iterations 0
time step continuity errors : sum local = 9.02513e-09, global = 2.08361e-10, cumulative = 1.11096e-07
DICPCG:  Solving for p_rgh, Initial residual = 9.92271e-05, Final residual = 4.55103e-09, No Iterations 31
diagonal:  Solving for rho, Initial residual = 0, Final residual = 0, No Iterations 0
time step continuity errors : sum local = 9.15914e-11, global = -9.15914e-11, cumulative = 1.11004e-07
DILUPBiCGStab:  Solving for epsilon, Initial residual = 0.0015663, Final residual = 9.76078e-08, No Iterations 1
DILUPBiCGStab:  Solving for k, Initial residual = 0.00116008, Final residual = 8.39905e-08, No Iterations 1
ExecutionTime = 0.13 s  ClockTime = 0 s

Courant Number mean: 0.00450588 max: 0.021386
Time = 100.57

diagonal:  Solving for rho, Initial residual = 0, Final residual = 0, No Iterations 0
DILUPBiCGStab:  Solving for Ux, Initial residual = 0.000732331, Final residual = 2.33209e-08, No Iterations 1
DILUPBiCGStab:  Solving for Uy, Initial residual = 0.000505372, Final residual = 1.08416e-08, No Iterations 1
DILUPBiCGStab:  Solving for h, Initial residual = 0.000389187, Final residual = 1.73727e-08, No Iterations 1
DICPCG:  Solving for p_rgh, Initial residual = 0.00670365, Final residual = 5.1061e-05, No Iterations 16
diagonal:  Solving for rho, Initial residual = 0, Final residual = 0, No Iterations 0
time step continuity errors : sum local = 5.31891e-09, global = 2.35765e-10, cumulative = 1.1124e-07
DICPCG:  Solving for p_rgh, Initial residual = 6.28334e-05, Final residual = 6.09284e-09, No Iterations 30
diagonal:  Solving for rho, Initial residual = 0, Final residual = 0, No Iterations 0
time step continuity errors : sum local = 5.85376e-11, global = -5.85376e-11, cumulative = 1.11182e-07
DILUPBiCGStab:  Solving for epsilon, Initial residual = 0.00156393, Final residual = 9.72903e-08, No Iterations 1
DILUPBiCGStab:  Solving for k, Initial residual = 0.00115983, Final residual = 8.35485e-08, No Iterations 1
ExecutionTime = 0.13 s  ClockTime = 0 s

Courant Number mean: 0.00450566 max: 0.0214267
Time = 100.58

diagonal:  Solving for rho, Initial residual = 0, Final residual = 0, No Iterations 0
DILUPBiCGStab:  Solving for Ux, Initial residual = 0.000816781, Final residual = 2.39883e-08, No Iterations 1
DILUPBiCGStab:  Solving for Uy, Initial residual = 0.000532872, Final residual = 1.13014e-08, No Iterations 1
DILUPBiCGStab:  Solving for h, Initial residual = 0.00039716, Final residual = 1.73623e-08, No Iterations 1
DICPCG:  Solving for p_rgh, Initial residual = 0.00348134, Final residual = 3.02222e-05, No Iterations 20
diagonal:  Solving for rho, Initial residual = 0, Final residual = 0, No Iterations 0
time step continuity errors : sum local = 3.27982e-09, global = 3.34011e-10, cumulative = 1.11516e-07
DICPCG:  Solving for p_rgh, Initial residual = 4.22181e-05, Final residual = 7.02775e-09, No Iterations 29
diagonal:  Solving for rho, Initial residual = 0, Final residual = 0, No Iterations 0
time step continuity errors : sum local = 2.0064e-11, global = -2.0064e-11, cumulative = 1.11496e-07
DILUPBiCGStab:  Solving for epsilon, Initial residual = 0.00156118, Final residual = 9.69631e-08, No Iterations 1
DILUPBiCGStab:  Solving for k, Initial residual = 0.00115915, Final residual = 8.30768e-08, No Iterations 1
ExecutionTime = 0.14 s  ClockTime = 0 s

Courant Number mean: 0.00450534 max: 0.021468
Time = 100.59

diagonal:  Solving for rho, Initial residual = 0, Final residual = 0, No Iterations 0
DILUPBiCGStab:  Solving for Ux, Initial residual = 0.000837738, Final residual = 2.40576e-08, No Iterations 1
DILUPBiCGStab:  Solving for Uy, Initial residual = 0.000538239, Final residual = 1.13648e-08, No Iterations 1
DILUPBiCGStab:  Solving for h, Initial residual = 0.000407083, Final residual = 1.73839e-08, No Iterations 1
DICPCG:  Solving for p_rgh, Initial residual = 0.0030521, Final residual = 1.94651e-05, No Iterations 19
diagonal:  Solving for rho, Initial residual = 0, Final residual = 0, No Iterations 0
time step continuity errors : sum local = 2.23658e-09, global = 3.09032e-10, cumulative = 1.11805e-07
DICPCG:  Solving for p_rgh, Initial residual = 3.3097e-05, Final residual = 9.39322e-09, No Iterations 28
diagonal:  Solving for rho, Initial residual = 0, Final residual = 0, No Iterations 0
[...]
DILUPBiCGStab:  Solving for k, Initial residual = 0.000697694, Final residual = 1.88598e-08, No Iterations 1
ExecutionTime = 0.43 s  ClockTime = 0 s

Courant Number mean: 0.00459558 max: 0.0240782
Time = 101.8

diagonal:  Solving for rho, Initial residual = 0, Final residual = 0, No Iterations 0
DILUPBiCGStab:  Solving for Ux, Initial residual = 0.0003039, Final residual = 6.16957e-09, No Iterations 1
DILUPBiCGStab:  Solving for Uy, Initial residual = 0.00029185, Final residual = 5.76353e-09, No Iterations 1
DILUPBiCGStab:  Solving for h, Initial residual = 0.000400475, Final residual = 6.91877e-09, No Iterations 1
DICPCG:  Solving for p_rgh, Initial residual = 0.000795328, Final residual = 5.39169e-06, No Iterations 21
diagonal:  Solving for rho, Initial residual = 0, Final residual = 0, No Iterations 0
time step continuity errors : sum local = 9.02305e-10, global = 3.24991e-10, cumulative = 1.52616e-07
DICPCG:  Solving for p_rgh, Initial residual = 1.32339e-05, Final residual = 5.06651e-09, No Iterations 29
diagonal:  Solving for rho, Initial residual = 0, Final residual = 0, No Iterations 0
time step continuity errors : sum local = 1.70321e-12, global = -1.60239e-12, cumulative = 1.52614e-07
DILUPBiCGStab:  Solving for epsilon, Initial residual = 0.0006911, Final residual = 1.69273e-08, No Iterations 1
DILUPBiCGStab:  Solving for k, Initial residual = 0.000694087, Final residual = 1.86092e-08, No Iterations 1
ExecutionTime = 0.43 s  ClockTime = 0 s

Courant Number mean: 0.0045962 max: 0.024088
Time = 101.81

diagonal:  Solving for rho, Initial residual = 0, Final residual = 0, No Iterations 0
DILUPBiCGStab:  Solving for Ux, Initial residual = 0.000302808, Final residual = 6.11309e-09, No Iterations 1
DILUPBiCGStab:  Solving for Uy, Initial residual = 0.000291583, Final residual = 5.74668e-09, No Iterations 1
DILUPBiCGStab:  Solving for h, Initial residual = 0.000400177, Final residual = 6.87681e-09, No Iterations 1
DICPCG:  Solving for p_rgh, Initial residual = 0.000794949, Final residual = 5.38483e-06, No Iterations 21
diagonal:  Solving for rho, Initial residual = 0, Final residual = 0, No Iterations 0
time step continuity errors : sum local = 9.01331e-10, global = 3.24511e-10, cumulative = 1.52939e-07
DICPCG:  Solving for p_rgh, Initial residual = 1.32236e-05, Final residual = 5.06341e-09, No Iterations 29
diagonal:  Solving for rho, Initial residual = 0, Final residual = 0, No Iterations 0
time step continuity errors : sum local = 1.69559e-12, global = -1.59055e-12, cumulative = 1.52937e-07
DILUPBiCGStab:  Solving for epsilon, Initial residual = 0.000685212, Final residual = 1.66305e-08, No Iterations 1
DILUPBiCGStab:  Solving for k, Initial residual = 0.000690485, Final residual = 1.83619e-08, No Iterations 1
ExecutionTime = 0.43 s  ClockTime = 0 s

Courant Number mean: 0.00459682 max: 0.0240977
Time = 101.82

diagonal:  Solving for rho, Initial residual = 0, Final residual = 0, No Iterations 0
DILUPBiCGStab:  Solving for Ux, Initial residual = 0.000301724, Final residual = 6.05711e-09, No Iterations 1
DILUPBiCGStab:  Solving for Uy, Initial residual = 0.000291297, Final residual = 5.72965e-09, No Iterations 1
DILUPBiCGStab:  Solving for h, Initial residual = 0.000399878, Final residual = 6.83524e-09, No Iterations 1
DICPCG:  Solving for p_rgh, Initial residual = 0.000794468, Final residual = 5.37707e-06, No Iterations 21
diagonal:  Solving for rho, Initial residual = 0, Final residual = 0, No Iterations 0
time step continuity errors : sum local = 9.00246e-10, global = 3.24022e-10, cumulative = 1.53261e-07
DICPCG:  Solving for p_rgh, Initial residual = 1.3212e-05, Final residual = 5.06047e-09, No Iterations 29
diagonal:  Solving for rho, Initial residual = 0, Final residual = 0, No Iterations 0
time step continuity errors : sum local = 1.69777e-12, global = -1.59142e-12, cumulative = 1.53259e-07
DILUPBiCGStab:  Solving for epsilon, Initial residual = 0.000679367, Final residual = 1.63387e-08, No Iterations 1
DILUPBiCGStab:  Solving for k, Initial residual = 0.000686885, Final residual = 1.81177e-08, No Iterations 1
ExecutionTime = 0.43 s  ClockTime = 0 s

Courant Number mean: 0.00459743 max: 0.0241073
Time = 101.83

diagonal:  Solving for rho, Initial residual = 0, Final residual = 0, No Iterations 0
DILUPBiCGStab:  Solving for Ux, Initial residual = 0.000300651, Final residual = 6.00158e-09, No Iterations 1
DILUPBiCGStab:  Solving for Uy, Initial residual = 0.000290993, Final residual = 5.71247e-09, No Iterations 1
DILUPBiCGStab:  Solving for h, Initial residual = 0.000399577, Final residual = 6.79408e-09, No Iterations 1
DICPCG:  Solving for p_rgh, Initial residual = 0.000793957, Final residual = 5.36638e-06, No Iterations 21
diagonal:  Solving for rho, Initial residual = 0, Final residual = 0, No Iterations 0
time step continuity errors : sum local = 8.99045e-10, global = 3.23516e-10, cumulative = 1.53583e-07
DICPCG:  Solving for p_rgh, Initial residual = 1.32002e-05, Final residual = 5.05784e-09, No Iterations 29
diagonal:  Solving for rho, Initial residual = 0, Final residual = 0, No Iterations 0
time step continuity errors : sum local = 1.69891e-12, global = -1.58763e-12, cumulative = 1.53581e-07
DILUPBiCGStab:  Solving for epsilon, Initial residual = 0.000673566, Final residual = 1.60519e-08, No Iterations 1
DILUPBiCGStab:  Solving for k, Initial residual = 0.000683289, Final residual = 1.78768e-08, No Iterations 1
ExecutionTime = 0.43 s  ClockTime = 0 s

Courant Number mean: 0.00459804 max: 0.0241166
Time = 101.84

diagonal:  Solving for rho, Initial residual = 0, Final residual = 0, No Iterations 0
DILUPBiCGStab:  Solving for Ux, Initial residual = 0.000299596, Final residual = 5.9466e-09, No Iterations 1
DILUPBiCGStab:  Solving for Uy, Initial residual = 0.000290683, Final residual = 5.69514e-09, No Iterations 1
DILUPBiCGStab:  Solving for h, Initial residual = 0.000399296, Final residual = 6.75391e-09, No Iterations 1
DICPCG:  Solving for p_rgh, Initial residual = 0.000793618, Final residual = 5.35836e-06, No Iterations 21
diagonal:  Solving for rho, Initial residual = 0, Final residual = 0, No Iterations 0
time step continuity errors : sum local = 8.97998e-10, global = 3.23007e-10, cumulative = 1.53904e-07
DICPCG:  Solving for p_rgh, Initial residual = 1.31879e-05, Final residual = 5.05154e-09, No Iterations 29
diagonal:  Solving for rho, Initial residual = 0, Final residual = 0, No Iterations 0
time step continuity errors : sum local = 1.69788e-12, global = -1.59738e-12, cumulative = 1.53903e-07
DILUPBiCGStab:  Solving for epsilon, Initial residual = 0.00066781, Final residual = 1.57701e-08, No Iterations 1
DILUPBiCGStab:  Solving for k, Initial residual = 0.000679697, Final residual = 1.7639e-08, No Iterations 1
ExecutionTime = 0.44 s  ClockTime = 0 s

Courant Number mean: 0.00459865 max: 0.0241257
Time = 101.85

diagonal:  Solving for rho, Initial residual = 0, Final residual = 0, No Iterations 0
DILUPBiCGStab:  Solving for Ux, Initial residual = 0.000298553, Final residual = 5.89205e-09, No Iterations 1
DILUPBiCGStab:  Solving for Uy, Initial residual = 0.000290369, Final residual = 5.67766e-09, No Iterations 1
DILUPBiCGStab:  Solving for h, Initial residual = 0.000399012, Final residual = 6.71637e-09, No Iterations 1
DICPCG:  Solving for p_rgh, Initial residual = 0.000793414, Final residual = 5.3499e-06, No Iterations 21
diagonal:  Solving for rho, Initial residual = 0, Final residual = 0, No Iterations 0
time step continuity errors : sum local = 8.96879e-10, global = 3.22507e-10, cumulative = 1.54225e-07
DICPCG:  Solving for p_rgh, Initial residual = 1.3175e-05, Final residual = 5.04468e-09, No Iterations 29
diagonal:  Solving for rho, Initial residual = 0, Final residual = 0, No Iterations 0
time step continuity errors : sum local = 1.6895e-12, global = -1.59166e-12, cumulative = 1.54224e-07
DILUPBiCGStab:  Solving for epsilon, Initial residual = 0.000662096, Final residual = 1.54931e-08, No Iterations 1
DILUPBiCGStab:  Solving for k, Initial residual = 0.00067611, Final residual = 1.74043e-08, No Iterations 1
ExecutionTime = 0.44 s  ClockTime = 0 s

Courant Number mean: 0.00459925 max: 0.0241347
Time = 101.86

diagonal:  Solving for rho, Initial residual = 0, Final residual = 0, No Iterations 0
DILUPBiCGStab:  Solving for Ux, Initial residual = 0.000297519, Final residual = 5.83791e-09, No Iterations 1
DILUPBiCGStab:  Solving for Uy, Initial residual = 0.000290039, Final residual = 5.66004e-09, No Iterations 1
DILUPBiCGStab:  Solving for h, Initial residual = 0.000398719, Final residual = 6.6802e-09, No Iterations 1
DICPCG:  Solving for p_rgh, Initial residual = 0.000793354, Final residual = 5.34123e-06, No Iterations 21
diagonal:  Solving for rho, Initial residual = 0, Final residual = 0, No Iterations 0
time step continuity errors : sum local = 8.95809e-10, global = 3.22006e-10, cumulative = 1.54546e-07
DICPCG:  Solving for p_rgh, Initial residual = 1.31622e-05, Final residual = 5.03772e-09, No Iterations 29
diagonal:  Solving for rho, Initial residual = 0, Final residual = 0, No Iterations 0
time step continuity errors : sum local = 1.70522e-12, global = -1.60805e-12, cumulative = 1.54544e-07
DILUPBiCGStab:  Solving for epsilon, Initial residual = 0.000656426, Final residual = 1.52209e-08, No Iterations 1
DILUPBiCGStab:  Solving for k, Initial residual = 0.000672531, Final residual = 1.71727e-08, No Iterations 1
ExecutionTime = 0.44 s  ClockTime = 0 s

Courant Number mean: 0.00459986 max: 0.0241435
Time = 101.87

diagonal:  Solving for rho, Initial residual = 0, Final residual = 0, No Iterations 0
DILUPBiCGStab:  Solving for Ux, Initial residual = 0.000296493, Final residual = 5.78418e-09, No Iterations 1
DILUPBiCGStab:  Solving for Uy, Initial residual = 0.000289695, Final residual = 5.64232e-09, No Iterations 1
DILUPBiCGStab:  Solving for h, Initial residual = 0.000398415, Final residual = 6.6451e-09, No Iterations 1
DICPCG:  Solving for p_rgh, Initial residual = 0.000793406, Final residual = 5.33248e-06, No Iterations 21
diagonal:  Solving for rho, Initial residual = 0, Final residual = 0, No Iterations 0
time step continuity errors : sum local = 8.94803e-10, global = 3.21511e-10, cumulative = 1.54866e-07
DICPCG:  Solving for p_rgh, Initial residual = 1.31528e-05, Final residual = 5.03018e-09, No Iterations 29
diagonal:  Solving for rho, Initial residual = 0, Final residual = 0, No Iterations 0
time step continuity errors : sum local = 1.70221e-12, global = -1.60752e-12, cumulative = 1.54864e-07
DILUPBiCGStab:  Solving for epsilon, Initial residual = 0.000650798, Final residual = 1.49535e-08, No Iterations 1
DILUPBiCGStab:  Solving for k, Initial residual = 0.000669008, Final residual = 1.69443e-08, No Iterations 1
ExecutionTime = 0.44 s  ClockTime = 0 s

Courant Number mean: 0.00460045 max: 0.0241521
Time = 101.88

diagonal:  Solving for rho, Initial residual = 0, Final residual = 0, No Iterations 0
DILUPBiCGStab:  Solving for Ux, Initial residual = 0.000295476, Final residual = 5.73085e-09, No Iterations 1
DILUPBiCGStab:  Solving for Uy, Initial residual = 0.000289337, Final residual = 5.62452e-09, No Iterations 1
DILUPBiCGStab:  Solving for h, Initial residual = 0.000398108, Final residual = 6.61026e-09, No Iterations 1
DICPCG:  Solving for p_rgh, Initial residual = 0.000793513, Final residual = 5.32369e-06, No Iterations 21
diagonal:  Solving for rho, Initial residual = 0, Final residual = 0, No Iterations 0
time step continuity errors : sum local = 8.9384e-10, global = 3.21017e-10, cumulative = 1.55185e-07
DICPCG:  Solving for p_rgh, Initial residual = 1.31436e-05, Final residual = 5.02165e-09, No Iterations 29
diagonal:  Solving for rho, Initial residual = 0, Final residual = 0, No Iterations 0
time step continuity errors : sum local = 1.71357e-12, global = -1.61412e-12, cumulative = 1.55183e-07
DILUPBiCGStab:  Solving for epsilon, Initial residual = 0.000645213, Final residual = 1.46907e-08, No Iterations 1
DILUPBiCGStab:  Solving for k, Initial residual = 0.000665497, Final residual = 1.67229e-08, No Iterations 1
ExecutionTime = 0.45 s  ClockTime = 0 s

Courant Number mean: 0.00460108 max: 0.0241605
Time = 101.89

diagonal:  Solving for rho, Initial residual = 0, Final residual = 0, No Iterations 0
DILUPBiCGStab:  Solving for Ux, Initial residual = 0.000294467, Final residual = 5.67797e-09, No Iterations 1
DILUPBiCGStab:  Solving for Uy, Initial residual = 0.000288966, Final residual = 5.6082e-09, No Iterations 1
DILUPBiCGStab:  Solving for h, Initial residual = 0.000397798, Final residual = 6.57562e-09, No Iterations 1
DICPCG:  Solving for p_rgh, Initial residual = 0.000793871, Final residual = 5.30851e-06, No Iterations 21
diagonal:  Solving for rho, Initial residual = 0, Final residual = 0, No Iterations 0
time step continuity errors : sum local = 8.92231e-10, global = 3.20513e-10, cumulative = 1.55504e-07
DICPCG:  Solving for p_rgh, Initial residual = 1.31263e-05, Final residual = 5.01363e-09, No Iterations 29
diagonal:  Solving for rho, Initial residual = 0, Final residual = 0, No Iterations 0
time step continuity errors : sum local = 1.72999e-12, global = -1.63206e-12, cumulative = 1.55502e-07
DILUPBiCGStab:  Solving for epsilon, Initial residual = 0.000639714, Final residual = 1.44325e-08, No Iterations 1
DILUPBiCGStab:  Solving for k, Initial residual = 0.000661997, Final residual = 1.65055e-08, No Iterations 1
ExecutionTime = 0.45 s  ClockTime = 0 s

Courant Number mean: 0.00460186 max: 0.0241687
Time = 101.9

diagonal:  Solving for rho, Initial residual = 0, Final residual = 0, No Iterations 0
DILUPBiCGStab:  Solving for Ux, Initial residual = 0.000293467, Final residual = 5.62573e-09, No Iterations 1
DILUPBiCGStab:  Solving for Uy, Initial residual = 0.000288573, Final residual = 5.59162e-09, No Iterations 1
DILUPBiCGStab:  Solving for h, Initial residual = 0.000397486, Final residual = 6.54127e-09, No Iterations 1
DICPCG:  Solving for p_rgh, Initial residual = 0.000795191, Final residual = 5.26992e-06, No Iterations 21
diagonal:  Solving for rho, Initial residual = 0, Final residual = 0, No Iterations 0
time step continuity errors : sum local = 8.88752e-10, global = 3.20003e-10, cumulative = 1.55822e-07
DICPCG:  Solving for p_rgh, Initial residual = 1.30855e-05, Final residual = 5.00972e-09, No Iterations 29
diagonal:  Solving for rho, Initial residual = 0, Final residual = 0, No Iterations 0
time step continuity errors : sum local = 1.73656e-12, global = -1.63795e-12, cumulative = 1.55821e-07
DILUPBiCGStab:  Solving for epsilon, Initial residual = 0.000634271, Final residual = 1.41788e-08, No Iterations 1
DILUPBiCGStab:  Solving for k, Initial residual = 0.000658504, Final residual = 1.62912e-08, No Iterations 1
ExecutionTime = 0.45 s  ClockTime = 0 s

Courant Number mean: 0.00460263 max: 0.0241768
Time = 101.91

diagonal:  Solving for rho, Initial residual = 0, Final residual = 0, No Iterations 0
DILUPBiCGStab:  Solving for Ux, Initial residual = 0.000292476, Final residual = 5.5756e-09, No Iterations 1
DILUPBiCGStab:  Solving for Uy, Initial residual = 0.000288121, Final residual = 5.57413e-09, No Iterations 1
DILUPBiCGStab:  Solving for h, Initial residual = 0.000397174, Final residual = 6.50712e-09, No Iterations 1
DICPCG:  Solving for p_rgh, Initial residual = 0.000795771, Final residual = 5.2605e-06, No Iterations 21
diagonal:  Solving for rho, Initial residual = 0, Final residual = 0, No Iterations 0
time step continuity errors : sum local = 8.87884e-10, global = 3.19489e-10, cumulative = 1.5614e-07
DICPCG:  Solving for p_rgh, Initial residual = 1.30766e-05, Final residual = 4.99851e-09, No Iterations 29
diagonal:  Solving for rho, Initial residual = 0, Final residual = 0, No Iterations 0
time step continuity errors : sum local = 1.74446e-12, global = -1.64565e-12, cumulative = 1.56138e-07
DILUPBiCGStab:  Solving for epsilon, Initial residual = 0.000628868, Final residual = 1.39295e-08, No Iterations 1
DILUPBiCGStab:  Solving for k, Initial residual = 0.000655021, Final residual = 1.60799e-08, No Iterations 1
ExecutionTime = 0.45 s  ClockTime = 0 s

Courant Number mean: 0.00460341 max: 0.0241847
Time = 101.92

diagonal:  Solving for rho, Initial residual = 0, Final residual = 0, No Iterations 0
DILUPBiCGStab:  Solving for Ux, Initial residual = 0.000291496, Final residual = 5.52588e-09, No Iterations 1
DILUPBiCGStab:  Solving for Uy, Initial residual = 0.000287657, Final residual = 5.55657e-09, No Iterations 1
DILUPBiCGStab:  Solving for h, Initial residual = 0.000396862, Final residual = 6.47324e-09, No Iterations 1
DICPCG:  Solving for p_rgh, Initial residual = 0.000796223, Final residual = 5.25552e-06, No Iterations 21
diagonal:  Solving for rho, Initial residual = 0, Final residual = 0, No Iterations 0
time step continuity errors : sum local = 8.8734e-10, global = 3.1898e-10, cumulative = 1.56457e-07
DICPCG:  Solving for p_rgh, Initial residual = 1.30709e-05, Final residual = 4.98633e-09, No Iterations 29
diagonal:  Solving for rho, Initial residual = 0, Final residual = 0, No Iterations 0
time step continuity errors : sum local = 1.73878e-12, global = -1.64827e-12, cumulative = 1.56456e-07
DILUPBiCGStab:  Solving for epsilon, Initial residual = 0.000623546, Final residual = 1.36847e-08, No Iterations 1
DILUPBiCGStab:  Solving for k, Initial residual = 0.000651548, Final residual = 1.58715e-08, No Iterations 1
ExecutionTime = 0.46 s  ClockTime = 0 s

Courant Number mean: 0.00460417 max: 0.0241924
Time = 101.93

diagonal:  Solving for rho, Initial residual = 0, Final residual = 0, No Iterations 0
DILUPBiCGStab:  Solving for Ux, Initial residual = 0.000290524, Final residual = 5.47656e-09, No Iterations 1
DILUPBiCGStab:  Solving for Uy, Initial residual = 0.000287181, Final residual = 5.53894e-09, No Iterations 1
DILUPBiCGStab:  Solving for h, Initial residual = 0.000396558, Final residual = 6.43963e-09, No Iterations 1
DICPCG:  Solving for p_rgh, Initial residual = 0.000796527, Final residual = 5.2449e-06, No Iterations 21
diagonal:  Solving for rho, Initial residual = 0, Final residual = 0, No Iterations 0
time step continuity errors : sum local = 8.86301e-10, global = 3.18448e-10, cumulative = 1.56774e-07
DICPCG:  Solving for p_rgh, Initial residual = 1.30604e-05, Final residual = 4.97341e-09, No Iterations 29
diagonal:  Solving for rho, Initial residual = 0, Final residual = 0, No Iterations 0
time step continuity errors : sum local = 1.75702e-12, global = -1.64417e-12, cumulative = 1.56773e-07
DILUPBiCGStab:  Solving for epsilon, Initial residual = 0.0006183, Final residual = 1.34442e-08, No Iterations 1
DILUPBiCGStab:  Solving for k, Initial residual = 0.000648113, Final residual = 1.56661e-08, No Iterations 1
ExecutionTime = 0.46 s  ClockTime = 0 s

Courant Number mean: 0.00460496 max: 0.0241999
Time = 101.94

diagonal:  Solving for rho, Initial residual = 0, Final residual = 0, No Iterations 0
DILUPBiCGStab:  Solving for Ux, Initial residual = 0.000289561, Final residual = 5.42761e-09, No Iterations 1
DILUPBiCGStab:  Solving for Uy, Initial residual = 0.000286692, Final residual = 5.52121e-09, No Iterations 1
DILUPBiCGStab:  Solving for h, Initial residual = 0.000396369, Final residual = 6.40625e-09, No Iterations 1
DICPCG:  Solving for p_rgh, Initial residual = 0.000797049, Final residual = 5.22905e-06, No Iterations 21
diagonal:  Solving for rho, Initial residual = 0, Final residual = 0, No Iterations 0
time step continuity errors : sum local = 8.84836e-10, global = 3.1791e-10, cumulative = 1.57091e-07
DICPCG:  Solving for p_rgh, Initial residual = 1.30463e-05, Final residual = 4.96137e-09, No Iterations 29
diagonal:  Solving for rho, Initial residual = 0, Final residual = 0, No Iterations 0
time step continuity errors : sum local = 1.74862e-12, global = -1.6518e-12, cumulative = 1.57089e-07
DILUPBiCGStab:  Solving for epsilon, Initial residual = 0.000613101, Final residual = 1.3208e-08, No Iterations 1
