/*---------------------------------------------------------------------------*\
  =========                 |
  \\      /  F ield         | OpenFOAM: The Open Source CFD Toolbox
   \\    /   O peration     | Website:  https://openfoam.org
    \\  /    A nd           | Version:  6
     \\/     M anipulation  |
\*---------------------------------------------------------------------------*/
Build  : 6-f934eabb0d52
Exec   : buoyantPimpleFoam -case /home/mamitsu/OpenFOAM/mamitsu-6/run/aircond5/Case/case5
Date   : May 15 2019
Time   : 17:26:12
Host   : "mamitsu-desktop"
PID    : 5825
I/O    : uncollated
Case   : /home/mamitsu/OpenFOAM/mamitsu-6/run/aircond5/Case/case5
nProcs : 1
sigFpe : Enabling floating point exception trapping (FOAM_SIGFPE).
fileModificationChecking : Monitoring run-time modified files using timeStampMaster (fileModificationSkew 10)
allowSystemOperations : Allowing user-supplied system call operations

// * * * * * * * * * * * * * * * * * * * * * * * * * * * * * * * * * * * * * //
Create time

Create mesh for time = 100


PIMPLE: No convergence criteria found


PIMPLE: Operating solver in PISO mode

Reading thermophysical properties

Selecting thermodynamics package
{
    type            heRhoThermo;
    mixture         pureMixture;
    transport       const;
    thermo          hConst;
    equationOfState perfectGas;
    specie          specie;
    energy          sensibleEnthalpy;
}

Reading field U

Reading/calculating face flux field phi

Creating turbulence model

Selecting turbulence model type RAS
Selecting RAS turbulence model kEpsilon
RAS
{
    RASModel        kEpsilon;
    turbulence      on;
    printCoeffs     on;
    Cmu             0.09;
    C1              1.44;
    C2              1.92;
    C3              0;
    sigmak          1;
    sigmaEps        1.3;
}


Reading g

Reading hRef
Calculating field g.h

Reading field p_rgh

Creating field dpdt

Creating field kinetic energy K

No MRF models present

Radiation model not active: radiationProperties not found
Selecting radiationModel none
No finite volume options present
Courant Number mean: 0.00659319 max: 0.0359551

Starting time loop

Courant Number mean: 0.00659319 max: 0.0359551
Time = 100.01

diagonal:  Solving for rho, Initial residual = 0, Final residual = 0, No Iterations 0
DILUPBiCGStab:  Solving for Ux, Initial residual = 0.0031198, Final residual = 3.52476e-08, No Iterations 1
DILUPBiCGStab:  Solving for Uy, Initial residual = 0.107573, Final residual = 8.0689e-07, No Iterations 1
DILUPBiCGStab:  Solving for h, Initial residual = 0.000136146, Final residual = 9.81154e-10, No Iterations 1
DICPCG:  Solving for p_rgh, Initial residual = 0.974037, Final residual = 0.00714516, No Iterations 8
diagonal:  Solving for rho, Initial residual = 0, Final residual = 0, No Iterations 0
time step continuity errors : sum local = 8.98674e-06, global = -1.86382e-06, cumulative = -1.86382e-06
DICPCG:  Solving for p_rgh, Initial residual = 0.120607, Final residual = 7.70195e-09, No Iterations 39
diagonal:  Solving for rho, Initial residual = 0, Final residual = 0, No Iterations 0
time step continuity errors : sum local = 3.98621e-10, global = -1.62444e-10, cumulative = -1.86398e-06
DILUPBiCGStab:  Solving for epsilon, Initial residual = 3.80765e-05, Final residual = 3.6249e-10, No Iterations 1
DILUPBiCGStab:  Solving for k, Initial residual = 6.78124e-05, Final residual = 8.2488e-10, No Iterations 1
ExecutionTime = 0 s  ClockTime = 0 s

Courant Number mean: 0.00658987 max: 0.0364444
Time = 100.02

diagonal:  Solving for rho, Initial residual = 0, Final residual = 0, No Iterations 0
DILUPBiCGStab:  Solving for Ux, Initial residual = 0.00311801, Final residual = 2.61144e-08, No Iterations 1
DILUPBiCGStab:  Solving for Uy, Initial residual = 0.00360774, Final residual = 4.72017e-08, No Iterations 1
DILUPBiCGStab:  Solving for h, Initial residual = 0.000109395, Final residual = 1.40766e-09, No Iterations 1
DICPCG:  Solving for p_rgh, Initial residual = 0.184427, Final residual = 0.00125294, No Iterations 24
diagonal:  Solving for rho, Initial residual = 0, Final residual = 0, No Iterations 0
time step continuity errors : sum local = 8.86781e-08, global = 5.33195e-10, cumulative = -1.86345e-06
DICPCG:  Solving for p_rgh, Initial residual = 0.00311382, Final residual = 7.91179e-09, No Iterations 36
diagonal:  Solving for rho, Initial residual = 0, Final residual = 0, No Iterations 0
time step continuity errors : sum local = 3.35186e-10, global = -2.96353e-10, cumulative = -1.86374e-06
DILUPBiCGStab:  Solving for epsilon, Initial residual = 3.72386e-05, Final residual = 3.35449e-10, No Iterations 1
DILUPBiCGStab:  Solving for k, Initial residual = 6.796e-05, Final residual = 8.1287e-10, No Iterations 1
ExecutionTime = 0 s  ClockTime = 0 s

Courant Number mean: 0.00658755 max: 0.0363284
Time = 100.03

diagonal:  Solving for rho, Initial residual = 0, Final residual = 0, No Iterations 0
DILUPBiCGStab:  Solving for Ux, Initial residual = 0.00142046, Final residual = 1.01248e-08, No Iterations 1
DILUPBiCGStab:  Solving for Uy, Initial residual = 0.00183196, Final residual = 1.78415e-08, No Iterations 1
DILUPBiCGStab:  Solving for h, Initial residual = 0.000200188, Final residual = 1.86954e-09, No Iterations 1
DICPCG:  Solving for p_rgh, Initial residual = 0.0602962, Final residual = 0.000437639, No Iterations 22
diagonal:  Solving for rho, Initial residual = 0, Final residual = 0, No Iterations 0
time step continuity errors : sum local = 3.17327e-08, global = -5.06046e-11, cumulative = -1.86379e-06
DICPCG:  Solving for p_rgh, Initial residual = 0.000581074, Final residual = 6.67278e-09, No Iterations 33
diagonal:  Solving for rho, Initial residual = 0, Final residual = 0, No Iterations 0
time step continuity errors : sum local = 2.58093e-10, global = -2.23405e-10, cumulative = -1.86402e-06
DILUPBiCGStab:  Solving for epsilon, Initial residual = 3.514e-05, Final residual = 2.96481e-10, No Iterations 1
DILUPBiCGStab:  Solving for k, Initial residual = 6.66096e-05, Final residual = 7.63775e-10, No Iterations 1
ExecutionTime = 0.01 s  ClockTime = 0 s

Courant Number mean: 0.00658151 max: 0.0362449
Time = 100.04

diagonal:  Solving for rho, Initial residual = 0, Final residual = 0, No Iterations 0
DILUPBiCGStab:  Solving for Ux, Initial residual = 0.00117209, Final residual = 9.18295e-09, No Iterations 1
DILUPBiCGStab:  Solving for Uy, Initial residual = 0.00162336, Final residual = 1.71866e-08, No Iterations 1
DILUPBiCGStab:  Solving for h, Initial residual = 0.0001909, Final residual = 2.01318e-09, No Iterations 1
DICPCG:  Solving for p_rgh, Initial residual = 0.0279268, Final residual = 0.000196786, No Iterations 22
diagonal:  Solving for rho, Initial residual = 0, Final residual = 0, No Iterations 0
time step continuity errors : sum local = 1.5119e-08, global = 2.40811e-11, cumulative = -1.86399e-06
DICPCG:  Solving for p_rgh, Initial residual = 0.000315473, Final residual = 4.93557e-09, No Iterations 32
diagonal:  Solving for rho, Initial residual = 0, Final residual = 0, No Iterations 0
time step continuity errors : sum local = 1.15401e-10, global = -8.3576e-11, cumulative = -1.86408e-06
DILUPBiCGStab:  Solving for epsilon, Initial residual = 3.37226e-05, Final residual = 2.69626e-10, No Iterations 1
DILUPBiCGStab:  Solving for k, Initial residual = 6.58237e-05, Final residual = 7.27537e-10, No Iterations 1
ExecutionTime = 0.01 s  ClockTime = 0 s

Courant Number mean: 0.00657387 max: 0.0361829
Time = 100.05

diagonal:  Solving for rho, Initial residual = 0, Final residual = 0, No Iterations 0
DILUPBiCGStab:  Solving for Ux, Initial residual = 0.00214329, Final residual = 1.43851e-08, No Iterations 1
DILUPBiCGStab:  Solving for Uy, Initial residual = 0.00141987, Final residual = 1.4356e-08, No Iterations 1
DILUPBiCGStab:  Solving for h, Initial residual = 0.000134249, Final residual = 1.79955e-09, No Iterations 1
DICPCG:  Solving for p_rgh, Initial residual = 0.00805842, Final residual = 4.16599e-05, No Iterations 21
diagonal:  Solving for rho, Initial residual = 0, Final residual = 0, No Iterations 0
time step continuity errors : sum local = 3.29477e-09, global = -4.92821e-11, cumulative = -1.86413e-06
DICPCG:  Solving for p_rgh, Initial residual = 6.76344e-05, Final residual = 7.54587e-09, No Iterations 30
diagonal:  Solving for rho, Initial residual = 0, Final residual = 0, No Iterations 0
time step continuity errors : sum local = 6.74271e-11, global = 6.74271e-11, cumulative = -1.86406e-06
DILUPBiCGStab:  Solving for epsilon, Initial residual = 3.29008e-05, Final residual = 2.50752e-10, No Iterations 1
DILUPBiCGStab:  Solving for k, Initial residual = 6.5648e-05, Final residual = 6.9872e-10, No Iterations 1
ExecutionTime = 0.01 s  ClockTime = 0 s

Courant Number mean: 0.006567 max: 0.0361236
Time = 100.06

diagonal:  Solving for rho, Initial residual = 0, Final residual = 0, No Iterations 0
DILUPBiCGStab:  Solving for Ux, Initial residual = 0.00198655, Final residual = 1.32371e-08, No Iterations 1
DILUPBiCGStab:  Solving for Uy, Initial residual = 0.00133306, Final residual = 1.34106e-08, No Iterations 1
DILUPBiCGStab:  Solving for h, Initial residual = 0.000217471, Final residual = 2.33987e-09, No Iterations 1
DICPCG:  Solving for p_rgh, Initial residual = 0.0207937, Final residual = 0.0001196, No Iterations 21
diagonal:  Solving for rho, Initial residual = 0, Final residual = 0, No Iterations 0
time step continuity errors : sum local = 9.25204e-09, global = -4.45429e-11, cumulative = -1.8641e-06
DICPCG:  Solving for p_rgh, Initial residual = 0.000195466, Final residual = 6.39045e-09, No Iterations 32
diagonal:  Solving for rho, Initial residual = 0, Final residual = 0, No Iterations 0
time step continuity errors : sum local = 1.98566e-10, global = 1.98566e-10, cumulative = -1.8639e-06
DILUPBiCGStab:  Solving for epsilon, Initial residual = 3.26833e-05, Final residual = 2.37954e-10, No Iterations 1
DILUPBiCGStab:  Solving for k, Initial residual = 6.6077e-05, Final residual = 6.79558e-10, No Iterations 1
ExecutionTime = 0.01 s  ClockTime = 0 s

Courant Number mean: 0.00656203 max: 0.0360718
Time = 100.07

diagonal:  Solving for rho, Initial residual = 0, Final residual = 0, No Iterations 0
DILUPBiCGStab:  Solving for Ux, Initial residual = 0.0012418, Final residual = 8.81954e-09, No Iterations 1
DILUPBiCGStab:  Solving for Uy, Initial residual = 0.00109897, Final residual = 1.13277e-08, No Iterations 1
DILUPBiCGStab:  Solving for h, Initial residual = 0.000328926, Final residual = 2.9477e-09, No Iterations 1
DICPCG:  Solving for p_rgh, Initial residual = 0.0330022, Final residual = 0.000286439, No Iterations 20
diagonal:  Solving for rho, Initial residual = 0, Final residual = 0, No Iterations 0
time step continuity errors : sum local = 2.07727e-08, global = 1.11086e-10, cumulative = -1.86379e-06
DICPCG:  Solving for p_rgh, Initial residual = 0.000437124, Final residual = 9.21227e-09, No Iterations 32
diagonal:  Solving for rho, Initial residual = 0, Final residual = 0, No Iterations 0
time step continuity errors : sum local = 2.88899e-10, global = 2.88899e-10, cumulative = -1.8635e-06
DILUPBiCGStab:  Solving for epsilon, Initial residual = 3.2755e-05, Final residual = 2.3236e-10, No Iterations 1
DILUPBiCGStab:  Solving for k, Initial residual = 6.65047e-05, Final residual = 6.72013e-10, No Iterations 1
ExecutionTime = 0.01 s  ClockTime = 0 s

Courant Number mean: 0.00655941 max: 0.0360405
Time = 100.08

diagonal:  Solving for rho, Initial residual = 0, Final residual = 0, No Iterations 0
DILUPBiCGStab:  Solving for Ux, Initial residual = 0.000521147, Final residual = 4.12345e-09, No Iterations 1
DILUPBiCGStab:  Solving for Uy, Initial residual = 0.000712808, Final residual = 7.56428e-09, No Iterations 1
DILUPBiCGStab:  Solving for h, Initial residual = 0.000407918, Final residual = 3.45148e-09, No Iterations 1
DICPCG:  Solving for p_rgh, Initial residual = 0.0431539, Final residual = 0.000383123, No Iterations 17
diagonal:  Solving for rho, Initial residual = 0, Final residual = 0, No Iterations 0
time step continuity errors : sum local = 2.49858e-08, global = 9.66702e-10, cumulative = -1.86254e-06
DICPCG:  Solving for p_rgh, Initial residual = 0.000552659, Final residual = 6.63645e-09, No Iterations 33
diagonal:  Solving for rho, Initial residual = 0, Final residual = 0, No Iterations 0
time step continuity errors : sum local = 3.24581e-10, global = 3.24581e-10, cumulative = -1.86221e-06
DILUPBiCGStab:  Solving for epsilon, Initial residual = 3.30913e-05, Final residual = 2.35716e-10, No Iterations 1
DILUPBiCGStab:  Solving for k, Initial residual = 6.67415e-05, Final residual = 6.74987e-10, No Iterations 1
ExecutionTime = 0.02 s  ClockTime = 0 s

Courant Number mean: 0.00655905 max: 0.0360388
Time = 100.09

diagonal:  Solving for rho, Initial residual = 0, Final residual = 0, No Iterations 0
DILUPBiCGStab:  Solving for Ux, Initial residual = 0.000158149, Final residual = 1.12235e-09, No Iterations 1
DILUPBiCGStab:  Solving for Uy, Initial residual = 0.000298118, Final residual = 3.02608e-09, No Iterations 1
DILUPBiCGStab:  Solving for h, Initial residual = 0.000440001, Final residual = 3.68957e-09, No Iterations 1
DICPCG:  Solving for p_rgh, Initial residual = 0.0460195, Final residual = 0.000395677, No Iterations 20
diagonal:  Solving for rho, Initial residual = 0, Final residual = 0, No Iterations 0
time step continuity errors : sum local = 2.35603e-08, global = 1.68917e-11, cumulative = -1.8622e-06
DICPCG:  Solving for p_rgh, Initial residual = 0.000456793, Final residual = 6.35385e-09, No Iterations 32
diagonal:  Solving for rho, Initial residual = 0, Final residual = 0, No Iterations 0
time step continuity errors : sum local = 3.03985e-10, global = 3.03985e-10, cumulative = -1.86189e-06
DILUPBiCGStab:  Solving for epsilon, Initial residual = 3.36626e-05, Final residual = 2.46945e-10, No Iterations 1
DILUPBiCGStab:  Solving for k, Initial residual = 6.67548e-05, Final residual = 6.8778e-10, No Iterations 1
ExecutionTime = 0.02 s  ClockTime = 0 s

Courant Number mean: 0.00656066 max: 0.0360661
Time = 100.1

diagonal:  Solving for rho, Initial residual = 0, Final residual = 0, No Iterations 0
DILUPBiCGStab:  Solving for Ux, Initial residual = 0.000433374, Final residual = 3.18203e-09, No Iterations 1
DILUPBiCGStab:  Solving for Uy, Initial residual = 0.000394422, Final residual = 4.88904e-09, No Iterations 1
DILUPBiCGStab:  Solving for h, Initial residual = 0.000422516, Final residual = 3.59977e-09, No Iterations 1
DICPCG:  Solving for p_rgh, Initial residual = 0.03296, Final residual = 0.00032422, No Iterations 20
diagonal:  Solving for rho, Initial residual = 0, Final residual = 0, No Iterations 0
time step continuity errors : sum local = 2.18357e-08, global = -7.88599e-11, cumulative = -1.86197e-06
DICPCG:  Solving for p_rgh, Initial residual = 0.000361182, Final residual = 6.62833e-09, No Iterations 32
diagonal:  Solving for rho, Initial residual = 0, Final residual = 0, No Iterations 0
time step continuity errors : sum local = 2.37335e-10, global = 2.37335e-10, cumulative = -1.86173e-06
DILUPBiCGStab:  Solving for epsilon, Initial residual = 3.44254e-05, Final residual = 2.6345e-10, No Iterations 1
DILUPBiCGStab:  Solving for k, Initial residual = 6.66321e-05, Final residual = 7.08304e-10, No Iterations 1
ExecutionTime = 0.02 s  ClockTime = 0 s

Courant Number mean: 0.00656376 max: 0.0361142
Time = 100.11

diagonal:  Solving for rho, Initial residual = 0, Final residual = 0, No Iterations 0
DILUPBiCGStab:  Solving for Ux, Initial residual = 0.000732339, Final residual = 5.36987e-09, No Iterations 1
DILUPBiCGStab:  Solving for Uy, Initial residual = 0.000705965, Final residual = 8.19729e-09, No Iterations 1
DILUPBiCGStab:  Solving for h, Initial residual = 0.000364502, Final residual = 3.24679e-09, No Iterations 1
DICPCG:  Solving for p_rgh, Initial residual = 0.0192018, Final residual = 0.000168573, No Iterations 17
diagonal:  Solving for rho, Initial residual = 0, Final residual = 0, No Iterations 0
time step continuity errors : sum local = 1.23572e-08, global = 4.69073e-10, cumulative = -1.86126e-06
DICPCG:  Solving for p_rgh, Initial residual = 0.000195411, Final residual = 6.43429e-09, No Iterations 31
diagonal:  Solving for rho, Initial residual = 0, Final residual = 0, No Iterations 0
time step continuity errors : sum local = 1.41799e-10, global = 1.41799e-10, cumulative = -1.86112e-06
DILUPBiCGStab:  Solving for epsilon, Initial residual = 3.54925e-05, Final residual = 2.82204e-10, No Iterations 1
DILUPBiCGStab:  Solving for k, Initial residual = 6.6621e-05, Final residual = 7.34317e-10, No Iterations 1
ExecutionTime = 0.02 s  ClockTime = 0 s

Courant Number mean: 0.00656776 max: 0.0361723
Time = 100.12

diagonal:  Solving for rho, Initial residual = 0, Final residual = 0, No Iterations 0
DILUPBiCGStab:  Solving for Ux, Initial residual = 0.000944442, Final residual = 6.82996e-09, No Iterations 1
DILUPBiCGStab:  Solving for Uy, Initial residual = 0.00089708, Final residual = 1.01181e-08, No Iterations 1
DILUPBiCGStab:  Solving for h, Initial residual = 0.000281482, Final residual = 2.7357e-09, No Iterations 1
DICPCG:  Solving for p_rgh, Initial residual = 0.00630787, Final residual = 4.57654e-05, No Iterations 22
diagonal:  Solving for rho, Initial residual = 0, Final residual = 0, No Iterations 0
time step continuity errors : sum local = 3.50511e-09, global = -8.91049e-11, cumulative = -1.86121e-06
DICPCG:  Solving for p_rgh, Initial residual = 5.70566e-05, Final residual = 6.08515e-09, No Iterations 29
diagonal:  Solving for rho, Initial residual = 0, Final residual = 0, No Iterations 0
time step continuity errors : sum local = 3.64306e-11, global = 3.64306e-11, cumulative = -1.86118e-06
DILUPBiCGStab:  Solving for epsilon, Initial residual = 3.66974e-05, Final residual = 3.0494e-10, No Iterations 1
DILUPBiCGStab:  Solving for k, Initial residual = 6.68969e-05, Final residual = 7.65602e-10, No Iterations 1
ExecutionTime = 0.03 s  ClockTime = 0 s

Courant Number mean: 0.00657191 max: 0.0362307
Time = 100.13

diagonal:  Solving for rho, Initial residual = 0, Final residual = 0, No Iterations 0
DILUPBiCGStab:  Solving for Ux, Initial residual = 0.00100814, Final residual = 7.19904e-09, No Iterations 1
DILUPBiCGStab:  Solving for Uy, Initial residual = 0.000933801, Final residual = 1.04575e-08, No Iterations 1
DILUPBiCGStab:  Solving for h, Initial residual = 0.000190232, Final residual = 2.13478e-09, No Iterations 1
DICPCG:  Solving for p_rgh, Initial residual = 0.00827541, Final residual = 8.03735e-05, No Iterations 19
diagonal:  Solving for rho, Initial residual = 0, Final residual = 0, No Iterations 0
time step continuity errors : sum local = 6.18019e-09, global = -4.3081e-11, cumulative = -1.86122e-06
DICPCG:  Solving for p_rgh, Initial residual = 0.000108327, Final residual = 4.76702e-09, No Iterations 31
diagonal:  Solving for rho, Initial residual = 0, Final residual = 0, No Iterations 0
time step continuity errors : sum local = 6.14581e-11, global = -6.14194e-11, cumulative = -1.86128e-06
DILUPBiCGStab:  Solving for epsilon, Initial residual = 3.79188e-05, Final residual = 3.27163e-10, No Iterations 1
DILUPBiCGStab:  Solving for k, Initial residual = 6.72711e-05, Final residual = 7.93732e-10, No Iterations 1
ExecutionTime = 0.03 s  ClockTime = 0 s

Courant Number mean: 0.00657557 max: 0.0362816
Time = 100.14

diagonal:  Solving for rho, Initial residual = 0, Final residual = 0, No Iterations 0
DILUPBiCGStab:  Solving for Ux, Initial residual = 0.000894513, Final residual = 6.36219e-09, No Iterations 1
DILUPBiCGStab:  Solving for Uy, Initial residual = 0.000831544, Final residual = 9.41113e-09, No Iterations 1
DILUPBiCGStab:  Solving for h, Initial residual = 0.000110579, Final residual = 1.48647e-09, No Iterations 1
DICPCG:  Solving for p_rgh, Initial residual = 0.0154826, Final residual = 0.000106709, No Iterations 20
diagonal:  Solving for rho, Initial residual = 0, Final residual = 0, No Iterations 0
time step continuity errors : sum local = 8.00076e-09, global = -3.29711e-11, cumulative = -1.86131e-06
DICPCG:  Solving for p_rgh, Initial residual = 0.000164549, Final residual = 8.17033e-09, No Iterations 31
diagonal:  Solving for rho, Initial residual = 0, Final residual = 0, No Iterations 0
time step continuity errors : sum local = 1.3779e-10, global = -1.3779e-10, cumulative = -1.86145e-06
DILUPBiCGStab:  Solving for epsilon, Initial residual = 3.89503e-05, Final residual = 3.44081e-10, No Iterations 1
DILUPBiCGStab:  Solving for k, Initial residual = 6.76478e-05, Final residual = 8.14199e-10, No Iterations 1
ExecutionTime = 0.03 s  ClockTime = 0 s

Courant Number mean: 0.00657819 max: 0.0363194
Time = 100.15

diagonal:  Solving for rho, Initial residual = 0, Final residual = 0, No Iterations 0
DILUPBiCGStab:  Solving for Ux, Initial residual = 0.000641636, Final residual = 4.59124e-09, No Iterations 1
DILUPBiCGStab:  Solving for Uy, Initial residual = 0.000623802, Final residual = 7.25538e-09, No Iterations 1
DILUPBiCGStab:  Solving for h, Initial residual = 7.00108e-05, Final residual = 9.55784e-10, No Iterations 1
DICPCG:  Solving for p_rgh, Initial residual = 0.0219673, Final residual = 0.000165085, No Iterations 20
diagonal:  Solving for rho, Initial residual = 0, Final residual = 0, No Iterations 0
time step continuity errors : sum local = 1.1743e-08, global = -1.8846e-10, cumulative = -1.86164e-06
DICPCG:  Solving for p_rgh, Initial residual = 0.000249049, Final residual = 6.56573e-09, No Iterations 32
diagonal:  Solving for rho, Initial residual = 0, Final residual = 0, No Iterations 0
time step continuity errors : sum local = 1.83608e-10, global = -1.83608e-10, cumulative = -1.86182e-06
DILUPBiCGStab:  Solving for epsilon, Initial residual = 3.95671e-05, Final residual = 3.53488e-10, No Iterations 1
DILUPBiCGStab:  Solving for k, Initial residual = 6.78336e-05, Final residual = 8.25086e-10, No Iterations 1
ExecutionTime = 0.03 s  ClockTime = 0 s

Courant Number mean: 0.00657945 max: 0.0363409
Time = 100.16

diagonal:  Solving for rho, Initial residual = 0, Final residual = 0, No Iterations 0
DILUPBiCGStab:  Solving for Ux, Initial residual = 0.000325116, Final residual = 2.3934e-09, No Iterations 1
DILUPBiCGStab:  Solving for Uy, Initial residual = 0.000354208, Final residual = 4.30887e-09, No Iterations 1
DILUPBiCGStab:  Solving for h, Initial residual = 6.94498e-05, Final residual = 8.09391e-10, No Iterations 1
DICPCG:  Solving for p_rgh, Initial residual = 0.0258811, Final residual = 0.000217549, No Iterations 20
diagonal:  Solving for rho, Initial residual = 0, Final residual = 0, No Iterations 0
time step continuity errors : sum local = 1.43969e-08, global = -2.09501e-10, cumulative = -1.86203e-06
DICPCG:  Solving for p_rgh, Initial residual = 0.000309748, Final residual = 7.15974e-09, No Iterations 32
diagonal:  Solving for rho, Initial residual = 0, Final residual = 0, No Iterations 0
time step continuity errors : sum local = 1.95434e-10, global = -1.95434e-10, cumulative = -1.86223e-06
DILUPBiCGStab:  Solving for epsilon, Initial residual = 3.97335e-05, Final residual = 3.55332e-10, No Iterations 1
DILUPBiCGStab:  Solving for k, Initial residual = 6.77928e-05, Final residual = 8.26442e-10, No Iterations 1
ExecutionTime = 0.04 s  ClockTime = 0 s

Courant Number mean: 0.00657931 max: 0.0363454
Time = 100.17

diagonal:  Solving for rho, Initial residual = 0, Final residual = 0, No Iterations 0
DILUPBiCGStab:  Solving for Ux, Initial residual = 7.51764e-05, Final residual = 6.5176e-10, No Iterations 1
DILUPBiCGStab:  Solving for Uy, Initial residual = 0.000157813, Final residual = 1.70367e-09, No Iterations 1
DILUPBiCGStab:  Solving for h, Initial residual = 7.50897e-05, Final residual = 8.52045e-10, No Iterations 1
DICPCG:  Solving for p_rgh, Initial residual = 0.0259276, Final residual = 0.000219349, No Iterations 20
diagonal:  Solving for rho, Initial residual = 0, Final residual = 0, No Iterations 0
time step continuity errors : sum local = 1.34e-08, global = -2.33718e-10, cumulative = -1.86246e-06
DICPCG:  Solving for p_rgh, Initial residual = 0.000293522, Final residual = 9.19676e-09, No Iterations 31
diagonal:  Solving for rho, Initial residual = 0, Final residual = 0, No Iterations 0
time step continuity errors : sum local = 1.75446e-10, global = -1.75446e-10, cumulative = -1.86264e-06
DILUPBiCGStab:  Solving for epsilon, Initial residual = 3.95101e-05, Final residual = 3.50873e-10, No Iterations 1
DILUPBiCGStab:  Solving for k, Initial residual = 6.75608e-05, Final residual = 8.1971e-10, No Iterations 1
ExecutionTime = 0.04 s  ClockTime = 0 s

Courant Number mean: 0.00657796 max: 0.0363351
Time = 100.18

diagonal:  Solving for rho, Initial residual = 0, Final residual = 0, No Iterations 0
DILUPBiCGStab:  Solving for Ux, Initial residual = 0.0003348, Final residual = 2.49847e-09, No Iterations 1
DILUPBiCGStab:  Solving for Uy, Initial residual = 0.000315504, Final residual = 3.47548e-09, No Iterations 1
DILUPBiCGStab:  Solving for h, Initial residual = 6.60045e-05, Final residual = 7.90365e-10, No Iterations 1
DICPCG:  Solving for p_rgh, Initial residual = 0.0211368, Final residual = 0.000135594, No Iterations 16
diagonal:  Solving for rho, Initial residual = 0, Final residual = 0, No Iterations 0
time step continuity errors : sum local = 7.82446e-09, global = 1.22767e-11, cumulative = -1.86262e-06
DICPCG:  Solving for p_rgh, Initial residual = 0.00016855, Final residual = 9.901e-09, No Iterations 30
diagonal:  Solving for rho, Initial residual = 0, Final residual = 0, No Iterations 0
time step continuity errors : sum local = 1.30657e-10, global = -1.30657e-10, cumulative = -1.86276e-06
DILUPBiCGStab:  Solving for epsilon, Initial residual = 3.90236e-05, Final residual = 3.4207e-10, No Iterations 1
DILUPBiCGStab:  Solving for k, Initial residual = 6.72279e-05, Final residual = 8.07352e-10, No Iterations 1
ExecutionTime = 0.04 s  ClockTime = 0 s

Courant Number mean: 0.00657575 max: 0.0363143
Time = 100.19

diagonal:  Solving for rho, Initial residual = 0, Final residual = 0, No Iterations 0
DILUPBiCGStab:  Solving for Ux, Initial residual = 0.000528255, Final residual = 3.89995e-09, No Iterations 1
DILUPBiCGStab:  Solving for Uy, Initial residual = 0.000485362, Final residual = 5.00566e-09, No Iterations 1
DILUPBiCGStab:  Solving for h, Initial residual = 7.08764e-05, Final residual = 9.71098e-10, No Iterations 1
DICPCG:  Solving for p_rgh, Initial residual = 0.0117352, Final residual = 8.84802e-05, No Iterations 21
diagonal:  Solving for rho, Initial residual = 0, Final residual = 0, No Iterations 0
time step continuity errors : sum local = 5.40618e-09, global = 1.27918e-11, cumulative = -1.86274e-06
DICPCG:  Solving for p_rgh, Initial residual = 0.000100663, Final residual = 6.24222e-09, No Iterations 30
diagonal:  Solving for rho, Initial residual = 0, Final residual = 0, No Iterations 0
time step continuity errors : sum local = 7.09902e-11, global = -7.09902e-11, cumulative = -1.86281e-06
DILUPBiCGStab:  Solving for epsilon, Initial residual = 3.84707e-05, Final residual = 3.32203e-10, No Iterations 1
DILUPBiCGStab:  Solving for k, Initial residual = 6.69176e-05, Final residual = 7.92431e-10, No Iterations 1
ExecutionTime = 0.04 s  ClockTime = 0 s

Courant Number mean: 0.00657312 max: 0.0362883
Time = 100.2

diagonal:  Solving for rho, Initial residual = 0, Final residual = 0, No Iterations 0
DILUPBiCGStab:  Solving for Ux, Initial residual = 0.000624575, Final residual = 4.60144e-09, No Iterations 1
DILUPBiCGStab:  Solving for Uy, Initial residual = 0.000575107, Final residual = 5.84228e-09, No Iterations 1
DILUPBiCGStab:  Solving for h, Initial residual = 0.000103565, Final residual = 1.38173e-09, No Iterations 1
DICPCG:  Solving for p_rgh, Initial residual = 0.00264062, Final residual = 1.45458e-05, No Iterations 23
diagonal:  Solving for rho, Initial residual = 0, Final residual = 0, No Iterations 0
time step continuity errors : sum local = 9.2806e-10, global = -4.08869e-11, cumulative = -1.86285e-06
DICPCG:  Solving for p_rgh, Initial residual = 2.04726e-05, Final residual = 7.06103e-09, No Iterations 28
diagonal:  Solving for rho, Initial residual = 0, Final residual = 0, No Iterations 0
time step continuity errors : sum local = 7.62449e-12, global = -7.6193e-12, cumulative = -1.86286e-06
DILUPBiCGStab:  Solving for epsilon, Initial residual = 3.7992e-05, Final residual = 3.22944e-10, No Iterations 1
DILUPBiCGStab:  Solving for k, Initial residual = 6.67065e-05, Final residual = 7.78203e-10, No Iterations 1
ExecutionTime = 0.05 s  ClockTime = 0 s

Courant Number mean: 0.00657055 max: 0.0362628
Time = 100.21

diagonal:  Solving for rho, Initial residual = 0, Final residual = 0, No Iterations 0
DILUPBiCGStab:  Solving for Ux, Initial residual = 0.000618801, Final residual = 4.57482e-09, No Iterations 1
DILUPBiCGStab:  Solving for Uy, Initial residual = 0.000579887, Final residual = 5.90918e-09, No Iterations 1
DILUPBiCGStab:  Solving for h, Initial residual = 0.000152968, Final residual = 1.79472e-09, No Iterations 1
DICPCG:  Solving for p_rgh, Initial residual = 0.00745999, Final residual = 5.07762e-05, No Iterations 18
diagonal:  Solving for rho, Initial residual = 0, Final residual = 0, No Iterations 0
time step continuity errors : sum local = 3.20678e-09, global = -2.43534e-11, cumulative = -1.86289e-06
DICPCG:  Solving for p_rgh, Initial residual = 7.89931e-05, Final residual = 7.9559e-09, No Iterations 30
diagonal:  Solving for rho, Initial residual = 0, Final residual = 0, No Iterations 0
time step continuity errors : sum local = 4.9187e-11, global = 4.91692e-11, cumulative = -1.86284e-06
DILUPBiCGStab:  Solving for epsilon, Initial residual = 3.76584e-05, Final residual = 3.15975e-10, No Iterations 1
DILUPBiCGStab:  Solving for k, Initial residual = 6.65639e-05, Final residual = 7.67693e-10, No Iterations 1
ExecutionTime = 0.05 s  ClockTime = 0 s

Courant Number mean: 0.00656838 max: 0.0362424
Time = 100.22

diagonal:  Solving for rho, Initial residual = 0, Final residual = 0, No Iterations 0
DILUPBiCGStab:  Solving for Ux, Initial residual = 0.000523019, Final residual = 3.90439e-09, No Iterations 1
DILUPBiCGStab:  Solving for Uy, Initial residual = 0.00050918, Final residual = 5.26311e-09, No Iterations 1
DILUPBiCGStab:  Solving for h, Initial residual = 0.000201809, Final residual = 2.11664e-09, No Iterations 1
DICPCG:  Solving for p_rgh, Initial residual = 0.0124454, Final residual = 7.97368e-05, No Iterations 20
diagonal:  Solving for rho, Initial residual = 0, Final residual = 0, No Iterations 0
time step continuity errors : sum local = 4.90551e-09, global = -4.71728e-11, cumulative = -1.86288e-06
DICPCG:  Solving for p_rgh, Initial residual = 0.000128947, Final residual = 7.35408e-09, No Iterations 31
diagonal:  Solving for rho, Initial residual = 0, Final residual = 0, No Iterations 0
time step continuity errors : sum local = 9.13622e-11, global = 9.13622e-11, cumulative = -1.86279e-06
DILUPBiCGStab:  Solving for epsilon, Initial residual = 3.74896e-05, Final residual = 3.12139e-10, No Iterations 1
DILUPBiCGStab:  Solving for k, Initial residual = 6.64897e-05, Final residual = 7.61765e-10, No Iterations 1
ExecutionTime = 0.05 s  ClockTime = 0 s

Courant Number mean: 0.00656692 max: 0.0362307
Time = 100.23

diagonal:  Solving for rho, Initial residual = 0, Final residual = 0, No Iterations 0
DILUPBiCGStab:  Solving for Ux, Initial residual = 0.000364077, Final residual = 2.76949e-09, No Iterations 1
DILUPBiCGStab:  Solving for Uy, Initial residual = 0.000383414, Final residual = 4.06573e-09, No Iterations 1
DILUPBiCGStab:  Solving for h, Initial residual = 0.000238248, Final residual = 2.33004e-09, No Iterations 1
DICPCG:  Solving for p_rgh, Initial residual = 0.0165288, Final residual = 0.000125535, No Iterations 20
diagonal:  Solving for rho, Initial residual = 0, Final residual = 0, No Iterations 0
time step continuity errors : sum local = 7.4279e-09, global = 2.29246e-11, cumulative = -1.86277e-06
DICPCG:  Solving for p_rgh, Initial residual = 0.000178886, Final residual = 4.6668e-09, No Iterations 32
diagonal:  Solving for rho, Initial residual = 0, Final residual = 0, No Iterations 0
time step continuity errors : sum local = 1.14182e-10, global = 1.14182e-10, cumulative = -1.86266e-06
DILUPBiCGStab:  Solving for epsilon, Initial residual = 3.74852e-05, Final residual = 3.11941e-10, No Iterations 1
DILUPBiCGStab:  Solving for k, Initial residual = 6.64494e-05, Final residual = 7.60248e-10, No Iterations 1
ExecutionTime = 0.05 s  ClockTime = 0 s

Courant Number mean: 0.00656627 max: 0.036229
Time = 100.24

diagonal:  Solving for rho, Initial residual = 0, Final residual = 0, No Iterations 0
DILUPBiCGStab:  Solving for Ux, Initial residual = 0.000177458, Final residual = 1.39334e-09, No Iterations 1
DILUPBiCGStab:  Solving for Uy, Initial residual = 0.000229778, Final residual = 2.49639e-09, No Iterations 1
DILUPBiCGStab:  Solving for h, Initial residual = 0.000257944, Final residual = 2.43685e-09, No Iterations 1
DICPCG:  Solving for p_rgh, Initial residual = 0.0175462, Final residual = 0.000148184, No Iterations 20
diagonal:  Solving for rho, Initial residual = 0, Final residual = 0, No Iterations 0
time step continuity errors : sum local = 8.68799e-09, global = 3.78324e-11, cumulative = -1.86262e-06
DICPCG:  Solving for p_rgh, Initial residual = 0.000185097, Final residual = 4.27033e-09, No Iterations 32
diagonal:  Solving for rho, Initial residual = 0, Final residual = 0, No Iterations 0
time step continuity errors : sum local = 1.16457e-10, global = 1.16457e-10, cumulative = -1.8625e-06
DILUPBiCGStab:  Solving for epsilon, Initial residual = 3.76392e-05, Final residual = 3.15223e-10, No Iterations 1
DILUPBiCGStab:  Solving for k, Initial residual = 6.64259e-05, Final residual = 7.62838e-10, No Iterations 1
ExecutionTime = 0.06 s  ClockTime = 0 s

Courant Number mean: 0.00656644 max: 0.0362374
Time = 100.25

diagonal:  Solving for rho, Initial residual = 0, Final residual = 0, No Iterations 0
DILUPBiCGStab:  Solving for Ux, Initial residual = 9.84384e-05, Final residual = 8.85599e-10, No Iterations 1
DILUPBiCGStab:  Solving for Uy, Initial residual = 0.000136743, Final residual = 1.79225e-09, No Iterations 1
DILUPBiCGStab:  Solving for h, Initial residual = 0.000259883, Final residual = 2.43907e-09, No Iterations 1
DICPCG:  Solving for p_rgh, Initial residual = 0.0148191, Final residual = 0.000128121, No Iterations 20
diagonal:  Solving for rho, Initial residual = 0, Final residual = 0, No Iterations 0
time step continuity errors : sum local = 7.90051e-09, global = 4.14737e-11, cumulative = -1.86246e-06
DICPCG:  Solving for p_rgh, Initial residual = 0.000155591, Final residual = 9.33643e-09, No Iterations 29
diagonal:  Solving for rho, Initial residual = 0, Final residual = 0, No Iterations 0
time step continuity errors : sum local = 1.00346e-10, global = 1.00346e-10, cumulative = -1.86236e-06
DILUPBiCGStab:  Solving for epsilon, Initial residual = 3.79221e-05, Final residual = 3.2118e-10, No Iterations 1
DILUPBiCGStab:  Solving for k, Initial residual = 6.64151e-05, Final residual = 7.68762e-10, No Iterations 1
ExecutionTime = 0.06 s  ClockTime = 0 s

Courant Number mean: 0.00656728 max: 0.036254
Time = 100.26

diagonal:  Solving for rho, Initial residual = 0, Final residual = 0, No Iterations 0
DILUPBiCGStab:  Solving for Ux, Initial residual = 0.000243377, Final residual = 1.87865e-09, No Iterations 1
DILUPBiCGStab:  Solving for Uy, Initial residual = 0.00024185, Final residual = 3.10548e-09, No Iterations 1
DILUPBiCGStab:  Solving for h, Initial residual = 0.000245927, Final residual = 2.34787e-09, No Iterations 1
DICPCG:  Solving for p_rgh, Initial residual = 0.0104653, Final residual = 6.99518e-05, No Iterations 16
diagonal:  Solving for rho, Initial residual = 0, Final residual = 0, No Iterations 0
time step continuity errors : sum local = 4.51686e-09, global = -4.01441e-11, cumulative = -1.8624e-06
DICPCG:  Solving for p_rgh, Initial residual = 8.78606e-05, Final residual = 8.75741e-09, No Iterations 29
diagonal:  Solving for rho, Initial residual = 0, Final residual = 0, No Iterations 0
time step continuity errors : sum local = 7.05974e-11, global = 7.05974e-11, cumulative = -1.86233e-06
DILUPBiCGStab:  Solving for epsilon, Initial residual = 3.82999e-05, Final residual = 3.28619e-10, No Iterations 1
DILUPBiCGStab:  Solving for k, Initial residual = 6.64244e-05, Final residual = 7.76903e-10, No Iterations 1
ExecutionTime = 0.06 s  ClockTime = 0 s

Courant Number mean: 0.00656858 max: 0.0362762
Time = 100.27

diagonal:  Solving for rho, Initial residual = 0, Final residual = 0, No Iterations 0
DILUPBiCGStab:  Solving for Ux, Initial residual = 0.000345779, Final residual = 2.57212e-09, No Iterations 1
DILUPBiCGStab:  Solving for Uy, Initial residual = 0.00032948, Final residual = 4.05177e-09, No Iterations 1
DILUPBiCGStab:  Solving for h, Initial residual = 0.000220184, Final residual = 2.18593e-09, No Iterations 1
DICPCG:  Solving for p_rgh, Initial residual = 0.00540069, Final residual = 4.33851e-05, No Iterations 21
diagonal:  Solving for rho, Initial residual = 0, Final residual = 0, No Iterations 0
time step continuity errors : sum local = 2.86339e-09, global = -9.90577e-11, cumulative = -1.86243e-06
DICPCG:  Solving for p_rgh, Initial residual = 4.94485e-05, Final residual = 8.04406e-09, No Iterations 28
diagonal:  Solving for rho, Initial residual = 0, Final residual = 0, No Iterations 0
time step continuity errors : sum local = 3.34398e-11, global = 3.34398e-11, cumulative = -1.8624e-06
DILUPBiCGStab:  Solving for epsilon, Initial residual = 3.8723e-05, Final residual = 3.3642e-10, No Iterations 1
DILUPBiCGStab:  Solving for k, Initial residual = 6.64458e-05, Final residual = 7.85872e-10, No Iterations 1
ExecutionTime = 0.06 s  ClockTime = 0 s

Courant Number mean: 0.00657007 max: 0.0363005
Time = 100.28

diagonal:  Solving for rho, Initial residual = 0, Final residual = 0, No Iterations 0
DILUPBiCGStab:  Solving for Ux, Initial residual = 0.000387573, Final residual = 2.85631e-09, No Iterations 1
DILUPBiCGStab:  Solving for Uy, Initial residual = 0.000371107, Final residual = 4.47344e-09, No Iterations 1
DILUPBiCGStab:  Solving for h, Initial residual = 0.000188092, Final residual = 1.9803e-09, No Iterations 1
DICPCG:  Solving for p_rgh, Initial residual = 0.00163337, Final residual = 1.34781e-05, No Iterations 22
diagonal:  Solving for rho, Initial residual = 0, Final residual = 0, No Iterations 0
time step continuity errors : sum local = 9.06624e-10, global = -7.02056e-11, cumulative = -1.86247e-06
DICPCG:  Solving for p_rgh, Initial residual = 1.89951e-05, Final residual = 9.89293e-09, No Iterations 21
diagonal:  Solving for rho, Initial residual = 0, Final residual = 0, No Iterations 0
time step continuity errors : sum local = 4.68546e-12, global = -4.52885e-12, cumulative = -1.86247e-06
DILUPBiCGStab:  Solving for epsilon, Initial residual = 3.91496e-05, Final residual = 3.43533e-10, No Iterations 1
DILUPBiCGStab:  Solving for k, Initial residual = 6.65095e-05, Final residual = 7.95292e-10, No Iterations 1
ExecutionTime = 0.06 s  ClockTime = 0 s

Courant Number mean: 0.00657148 max: 0.0363237
Time = 100.29

diagonal:  Solving for rho, Initial residual = 0, Final residual = 0, No Iterations 0
DILUPBiCGStab:  Solving for Ux, Initial residual = 0.000369259, Final residual = 2.72516e-09, No Iterations 1
DILUPBiCGStab:  Solving for Uy, Initial residual = 0.000361175, Final residual = 4.35262e-09, No Iterations 1
DILUPBiCGStab:  Solving for h, Initial residual = 0.000155625, Final residual = 1.76018e-09, No Iterations 1
DICPCG:  Solving for p_rgh, Initial residual = 0.00505215, Final residual = 4.74687e-05, No Iterations 19
diagonal:  Solving for rho, Initial residual = 0, Final residual = 0, No Iterations 0
time step continuity errors : sum local = 3.14638e-09, global = -7.77525e-11, cumulative = -1.86255e-06
DICPCG:  Solving for p_rgh, Initial residual = 6.47548e-05, Final residual = 7.18136e-09, No Iterations 30
diagonal:  Solving for rho, Initial residual = 0, Final residual = 0, No Iterations 0
time step continuity errors : sum local = 3.69374e-11, global = -3.6931e-11, cumulative = -1.86258e-06
DILUPBiCGStab:  Solving for epsilon, Initial residual = 3.94983e-05, Final residual = 3.49069e-10, No Iterations 1
DILUPBiCGStab:  Solving for k, Initial residual = 6.65815e-05, Final residual = 8.02695e-10, No Iterations 1
ExecutionTime = 0.07 s  ClockTime = 0 s

Courant Number mean: 0.00657259 max: 0.0363431
Time = 100.3

diagonal:  Solving for rho, Initial residual = 0, Final residual = 0, No Iterations 0
DILUPBiCGStab:  Solving for Ux, Initial residual = 0.000301208, Final residual = 2.25084e-09, No Iterations 1
DILUPBiCGStab:  Solving for Uy, Initial residual = 0.000304427, Final residual = 3.72749e-09, No Iterations 1
DILUPBiCGStab:  Solving for h, Initial residual = 0.000129553, Final residual = 1.55964e-09, No Iterations 1
DICPCG:  Solving for p_rgh, Initial residual = 0.00768439, Final residual = 5.56413e-05, No Iterations 20
diagonal:  Solving for rho, Initial residual = 0, Final residual = 0, No Iterations 0
time step continuity errors : sum local = 3.63678e-09, global = -1.13693e-10, cumulative = -1.8627e-06
DICPCG:  Solving for p_rgh, Initial residual = 8.20806e-05, Final residual = 8.95294e-09, No Iterations 30
diagonal:  Solving for rho, Initial residual = 0, Final residual = 0, No Iterations 0
time step continuity errors : sum local = 5.97748e-11, global = -5.97748e-11, cumulative = -1.86276e-06
DILUPBiCGStab:  Solving for epsilon, Initial residual = 3.97197e-05, Final residual = 3.52436e-10, No Iterations 1
DILUPBiCGStab:  Solving for k, Initial residual = 6.66589e-05, Final residual = 8.0717e-10, No Iterations 1
ExecutionTime = 0.07 s  ClockTime = 0 s

Courant Number mean: 0.00657327 max: 0.0363569
Time = 100.31

diagonal:  Solving for rho, Initial residual = 0, Final residual = 0, No Iterations 0
DILUPBiCGStab:  Solving for Ux, Initial residual = 0.000200629, Final residual = 1.55835e-09, No Iterations 1
DILUPBiCGStab:  Solving for Uy, Initial residual = 0.000215661, Final residual = 2.74722e-09, No Iterations 1
DILUPBiCGStab:  Solving for h, Initial residual = 0.00011205, Final residual = 1.40882e-09, No Iterations 1
DICPCG:  Solving for p_rgh, Initial residual = 0.00961255, Final residual = 7.67446e-05, No Iterations 20
diagonal:  Solving for rho, Initial residual = 0, Final residual = 0, No Iterations 0
time step continuity errors : sum local = 4.8884e-09, global = -1.17532e-10, cumulative = -1.86288e-06
DICPCG:  Solving for p_rgh, Initial residual = 0.000106134, Final residual = 6.46235e-09, No Iterations 31
diagonal:  Solving for rho, Initial residual = 0, Final residual = 0, No Iterations 0
time step continuity errors : sum local = 7.05862e-11, global = -7.05862e-11, cumulative = -1.86295e-06
DILUPBiCGStab:  Solving for epsilon, Initial residual = 3.97925e-05, Final residual = 3.53467e-10, No Iterations 1
DILUPBiCGStab:  Solving for k, Initial residual = 6.66639e-05, Final residual = 8.08394e-10, No Iterations 1
ExecutionTime = 0.07 s  ClockTime = 0 s

Courant Number mean: 0.00657344 max: 0.0363644
Time = 100.32

diagonal:  Solving for rho, Initial residual = 0, Final residual = 0, No Iterations 0
DILUPBiCGStab:  Solving for Ux, Initial residual = 9.25928e-05, Final residual = 8.19741e-10, No Iterations 1
DILUPBiCGStab:  Solving for Uy, Initial residual = 0.000135963, Final residual = 1.74004e-09, No Iterations 1
DILUPBiCGStab:  Solving for h, Initial residual = 0.00010404, Final residual = 1.33155e-09, No Iterations 1
DICPCG:  Solving for p_rgh, Initial residual = 0.00996785, Final residual = 8.76358e-05, No Iterations 20
diagonal:  Solving for rho, Initial residual = 0, Final residual = 0, No Iterations 0
time step continuity errors : sum local = 5.41625e-09, global = -1.20522e-10, cumulative = -1.86307e-06
DICPCG:  Solving for p_rgh, Initial residual = 0.000114311, Final residual = 5.80815e-09, No Iterations 31
diagonal:  Solving for rho, Initial residual = 0, Final residual = 0, No Iterations 0
time step continuity errors : sum local = 6.91138e-11, global = -6.91138e-11, cumulative = -1.86314e-06
DILUPBiCGStab:  Solving for epsilon, Initial residual = 3.97246e-05, Final residual = 3.52333e-10, No Iterations 1
DILUPBiCGStab:  Solving for k, Initial residual = 6.66002e-05, Final residual = 8.06586e-10, No Iterations 1
ExecutionTime = 0.07 s  ClockTime = 0 s

Courant Number mean: 0.00657313 max: 0.0363659
Time = 100.33

diagonal:  Solving for rho, Initial residual = 0, Final residual = 0, No Iterations 0
DILUPBiCGStab:  Solving for Ux, Initial residual = 0.000103339, Final residual = 8.50772e-10, No Iterations 1
DILUPBiCGStab:  Solving for Uy, Initial residual = 0.000147133, Final residual = 1.76424e-09, No Iterations 1
DILUPBiCGStab:  Solving for h, Initial residual = 0.000105099, Final residual = 1.33366e-09, No Iterations 1
DICPCG:  Solving for p_rgh, Initial residual = 0.00874322, Final residual = 7.29643e-05, No Iterations 18
diagonal:  Solving for rho, Initial residual = 0, Final residual = 0, No Iterations 0
time step continuity errors : sum local = 4.38149e-09, global = -2.54416e-10, cumulative = -1.86339e-06
DICPCG:  Solving for p_rgh, Initial residual = 8.88357e-05, Final residual = 4.83084e-09, No Iterations 31
diagonal:  Solving for rho, Initial residual = 0, Final residual = 0, No Iterations 0
time step continuity errors : sum local = 5.71001e-11, global = -5.71001e-11, cumulative = -1.86345e-06
DILUPBiCGStab:  Solving for epsilon, Initial residual = 3.95453e-05, Final residual = 3.49659e-10, No Iterations 1
DILUPBiCGStab:  Solving for k, Initial residual = 6.64844e-05, Final residual = 8.02424e-10, No Iterations 1
ExecutionTime = 0.08 s  ClockTime = 0 s

Courant Number mean: 0.00657244 max: 0.0363626
Time = 100.34

diagonal:  Solving for rho, Initial residual = 0, Final residual = 0, No Iterations 0
DILUPBiCGStab:  Solving for Ux, Initial residual = 0.000185247, Final residual = 1.44369e-09, No Iterations 1
DILUPBiCGStab:  Solving for Uy, Initial residual = 0.000201617, Final residual = 2.32067e-09, No Iterations 1
DILUPBiCGStab:  Solving for h, Initial residual = 0.000114035, Final residual = 1.40185e-09, No Iterations 1
DICPCG:  Solving for p_rgh, Initial residual = 0.00621915, Final residual = 4.59159e-05, No Iterations 16
diagonal:  Solving for rho, Initial residual = 0, Final residual = 0, No Iterations 0
time step continuity errors : sum local = 2.67684e-09, global = 2.97841e-11, cumulative = -1.86342e-06
DICPCG:  Solving for p_rgh, Initial residual = 5.79598e-05, Final residual = 7.88919e-09, No Iterations 28
diagonal:  Solving for rho, Initial residual = 0, Final residual = 0, No Iterations 0
time step continuity errors : sum local = 3.77299e-11, global = -3.77299e-11, cumulative = -1.86346e-06
DILUPBiCGStab:  Solving for epsilon, Initial residual = 3.92987e-05, Final residual = 3.46078e-10, No Iterations 1
DILUPBiCGStab:  Solving for k, Initial residual = 6.63413e-05, Final residual = 7.97959e-10, No Iterations 1
ExecutionTime = 0.08 s  ClockTime = 0 s

Courant Number mean: 0.00657152 max: 0.0363565
Time = 100.35

diagonal:  Solving for rho, Initial residual = 0, Final residual = 0, No Iterations 0
DILUPBiCGStab:  Solving for Ux, Initial residual = 0.000238091, Final residual = 1.83723e-09, No Iterations 1
DILUPBiCGStab:  Solving for Uy, Initial residual = 0.000248894, Final residual = 2.69018e-09, No Iterations 1
DILUPBiCGStab:  Solving for h, Initial residual = 0.000128922, Final residual = 1.51002e-09, No Iterations 1
DICPCG:  Solving for p_rgh, Initial residual = 0.00291738, Final residual = 2.66699e-05, No Iterations 21
diagonal:  Solving for rho, Initial residual = 0, Final residual = 0, No Iterations 0
time step continuity errors : sum local = 1.54507e-09, global = -4.50005e-11, cumulative = -1.8635e-06
DICPCG:  Solving for p_rgh, Initial residual = 3.02349e-05, Final residual = 7.5713e-09, No Iterations 27
diagonal:  Solving for rho, Initial residual = 0, Final residual = 0, No Iterations 0
time step continuity errors : sum local = 1.48518e-11, global = -1.48491e-11, cumulative = -1.86352e-06
DILUPBiCGStab:  Solving for epsilon, Initial residual = 3.90324e-05, Final residual = 3.42264e-10, No Iterations 1
DILUPBiCGStab:  Solving for k, Initial residual = 6.61944e-05, Final residual = 7.93083e-10, No Iterations 1
ExecutionTime = 0.08 s  ClockTime = 0 s

Courant Number mean: 0.00657051 max: 0.0363493
Time = 100.36

diagonal:  Solving for rho, Initial residual = 0, Final residual = 0, No Iterations 0
DILUPBiCGStab:  Solving for Ux, Initial residual = 0.000254657, Final residual = 1.96326e-09, No Iterations 1
DILUPBiCGStab:  Solving for Uy, Initial residual = 0.000266175, Final residual = 2.83573e-09, No Iterations 1
DILUPBiCGStab:  Solving for h, Initial residual = 0.00014709, Final residual = 1.62964e-09, No Iterations 1
DICPCG:  Solving for p_rgh, Initial residual = 0.00175778, Final residual = 1.7421e-05, No Iterations 21
diagonal:  Solving for rho, Initial residual = 0, Final residual = 0, No Iterations 0
time step continuity errors : sum local = 1.00775e-09, global = -6.0262e-11, cumulative = -1.86358e-06
DICPCG:  Solving for p_rgh, Initial residual = 2.35048e-05, Final residual = 7.48762e-09, No Iterations 26
diagonal:  Solving for rho, Initial residual = 0, Final residual = 0, No Iterations 0
time step continuity errors : sum local = 7.5387e-12, global = 7.50665e-12, cumulative = -1.86357e-06
DILUPBiCGStab:  Solving for epsilon, Initial residual = 3.88095e-05, Final residual = 3.38783e-10, No Iterations 1
DILUPBiCGStab:  Solving for k, Initial residual = 6.6057e-05, Final residual = 7.88689e-10, No Iterations 1
ExecutionTime = 0.08 s  ClockTime = 0 s

Courant Number mean: 0.00656959 max: 0.0363432
Time = 100.37

diagonal:  Solving for rho, Initial residual = 0, Final residual = 0, No Iterations 0
DILUPBiCGStab:  Solving for Ux, Initial residual = 0.000236183, Final residual = 1.83131e-09, No Iterations 1
DILUPBiCGStab:  Solving for Uy, Initial residual = 0.000253843, Final residual = 2.7155e-09, No Iterations 1
DILUPBiCGStab:  Solving for h, Initial residual = 0.000165858, Final residual = 1.74091e-09, No Iterations 1
DICPCG:  Solving for p_rgh, Initial residual = 0.00399751, Final residual = 2.71359e-05, No Iterations 20
diagonal:  Solving for rho, Initial residual = 0, Final residual = 0, No Iterations 0
time step continuity errors : sum local = 1.56474e-09, global = -6.47856e-11, cumulative = -1.86363e-06
DICPCG:  Solving for p_rgh, Initial residual = 4.08225e-05, Final residual = 5.74262e-09, No Iterations 29
diagonal:  Solving for rho, Initial residual = 0, Final residual = 0, No Iterations 0
time step continuity errors : sum local = 2.59628e-11, global = 2.59628e-11, cumulative = -1.86361e-06
DILUPBiCGStab:  Solving for epsilon, Initial residual = 3.86958e-05, Final residual = 3.36064e-10, No Iterations 1
DILUPBiCGStab:  Solving for k, Initial residual = 6.59437e-05, Final residual = 7.85462e-10, No Iterations 1
ExecutionTime = 0.09 s  ClockTime = 0 s

Courant Number mean: 0.00656887 max: 0.0363396
Time = 100.38

diagonal:  Solving for rho, Initial residual = 0, Final residual = 0, No Iterations 0
DILUPBiCGStab:  Solving for Ux, Initial residual = 0.000190309, Final residual = 1.49071e-09, No Iterations 1
DILUPBiCGStab:  Solving for Uy, Initial residual = 0.000217392, Final residual = 2.36885e-09, No Iterations 1
DILUPBiCGStab:  Solving for h, Initial residual = 0.000181773, Final residual = 1.8292e-09, No Iterations 1
DICPCG:  Solving for p_rgh, Initial residual = 0.00556918, Final residual = 3.9109e-05, No Iterations 20
diagonal:  Solving for rho, Initial residual = 0, Final residual = 0, No Iterations 0
time step continuity errors : sum local = 2.27139e-09, global = -3.52181e-11, cumulative = -1.86364e-06
DICPCG:  Solving for p_rgh, Initial residual = 5.66591e-05, Final residual = 6.58678e-09, No Iterations 30
diagonal:  Solving for rho, Initial residual = 0, Final residual = 0, No Iterations 0
time step continuity errors : sum local = 3.80938e-11, global = 3.80938e-11, cumulative = -1.8636e-06
DILUPBiCGStab:  Solving for epsilon, Initial residual = 3.86797e-05, Final residual = 3.3439e-10, No Iterations 1
DILUPBiCGStab:  Solving for k, Initial residual = 6.58576e-05, Final residual = 7.83766e-10, No Iterations 1
ExecutionTime = 0.09 s  ClockTime = 0 s

Courant Number mean: 0.00656843 max: 0.0363394
Time = 100.39

diagonal:  Solving for rho, Initial residual = 0, Final residual = 0, No Iterations 0
DILUPBiCGStab:  Solving for Ux, Initial residual = 0.000129443, Final residual = 1.04525e-09, No Iterations 1
DILUPBiCGStab:  Solving for Uy, Initial residual = 0.000167229, Final residual = 1.86213e-09, No Iterations 1
DILUPBiCGStab:  Solving for h, Initial residual = 0.000192252, Final residual = 1.88246e-09, No Iterations 1
DICPCG:  Solving for p_rgh, Initial residual = 0.00632063, Final residual = 4.90907e-05, No Iterations 20
diagonal:  Solving for rho, Initial residual = 0, Final residual = 0, No Iterations 0
time step continuity errors : sum local = 2.90437e-09, global = -2.45929e-11, cumulative = -1.86363e-06
DICPCG:  Solving for p_rgh, Initial residual = 6.67552e-05, Final residual = 8.97551e-09, No Iterations 30
diagonal:  Solving for rho, Initial residual = 0, Final residual = 0, No Iterations 0
time step continuity errors : sum local = 4.28185e-11, global = 4.28185e-11, cumulative = -1.86359e-06
DILUPBiCGStab:  Solving for epsilon, Initial residual = 3.87329e-05, Final residual = 3.33867e-10, No Iterations 1
DILUPBiCGStab:  Solving for k, Initial residual = 6.57972e-05, Final residual = 7.83546e-10, No Iterations 1
ExecutionTime = 0.09 s  ClockTime = 0 s

Courant Number mean: 0.00656829 max: 0.0363429
Time = 100.4

diagonal:  Solving for rho, Initial residual = 0, Final residual = 0, No Iterations 0
DILUPBiCGStab:  Solving for Ux, Initial residual = 7.02259e-05, Final residual = 6.1635e-10, No Iterations 1
DILUPBiCGStab:  Solving for Uy, Initial residual = 0.000122366, Final residual = 1.46898e-09, No Iterations 1
DILUPBiCGStab:  Solving for h, Initial residual = 0.000196319, Final residual = 1.89728e-09, No Iterations 1
DICPCG:  Solving for p_rgh, Initial residual = 0.00600957, Final residual = 5.13078e-05, No Iterations 20
diagonal:  Solving for rho, Initial residual = 0, Final residual = 0, No Iterations 0
time step continuity errors : sum local = 3.09344e-09, global = -2.21273e-11, cumulative = -1.86361e-06
DICPCG:  Solving for p_rgh, Initial residual = 6.55449e-05, Final residual = 6.79363e-09, No Iterations 30
diagonal:  Solving for rho, Initial residual = 0, Final residual = 0, No Iterations 0
time step continuity errors : sum local = 4.02902e-11, global = 4.02902e-11, cumulative = -1.86357e-06
DILUPBiCGStab:  Solving for epsilon, Initial residual = 3.88485e-05, Final residual = 3.34812e-10, No Iterations 1
DILUPBiCGStab:  Solving for k, Initial residual = 6.57582e-05, Final residual = 7.84629e-10, No Iterations 1
ExecutionTime = 0.09 s  ClockTime = 0 s

Courant Number mean: 0.00656843 max: 0.0363498
Time = 100.41

diagonal:  Solving for rho, Initial residual = 0, Final residual = 0, No Iterations 0
DILUPBiCGStab:  Solving for Ux, Initial residual = 9.11944e-05, Final residual = 8.20737e-10, No Iterations 1
DILUPBiCGStab:  Solving for Uy, Initial residual = 0.000128237, Final residual = 1.63735e-09, No Iterations 1
DILUPBiCGStab:  Solving for h, Initial residual = 0.000194124, Final residual = 1.87495e-09, No Iterations 1
DICPCG:  Solving for p_rgh, Initial residual = 0.00483476, Final residual = 4.47257e-05, No Iterations 17
diagonal:  Solving for rho, Initial residual = 0, Final residual = 0, No Iterations 0
time step continuity errors : sum local = 2.74848e-09, global = 5.83039e-11, cumulative = -1.86351e-06
DICPCG:  Solving for p_rgh, Initial residual = 5.4358e-05, Final residual = 6.0375e-09, No Iterations 30
diagonal:  Solving for rho, Initial residual = 0, Final residual = 0, No Iterations 0
time step continuity errors : sum local = 3.179e-11, global = 3.179e-11, cumulative = -1.86348e-06
DILUPBiCGStab:  Solving for epsilon, Initial residual = 3.9009e-05, Final residual = 3.36421e-10, No Iterations 1
DILUPBiCGStab:  Solving for k, Initial residual = 6.57332e-05, Final residual = 7.86647e-10, No Iterations 1
ExecutionTime = 0.1 s  ClockTime = 0 s

Courant Number mean: 0.00656878 max: 0.0363592
Time = 100.42

diagonal:  Solving for rho, Initial residual = 0, Final residual = 0, No Iterations 0
DILUPBiCGStab:  Solving for Ux, Initial residual = 0.000132582, Final residual = 1.11155e-09, No Iterations 1
DILUPBiCGStab:  Solving for Uy, Initial residual = 0.000153091, Final residual = 1.98269e-09, No Iterations 1
DILUPBiCGStab:  Solving for h, Initial residual = 0.000186774, Final residual = 1.8221e-09, No Iterations 1
DICPCG:  Solving for p_rgh, Initial residual = 0.00311228, Final residual = 2.80384e-05, No Iterations 16
diagonal:  Solving for rho, Initial residual = 0, Final residual = 0, No Iterations 0
time step continuity errors : sum local = 1.75587e-09, global = -1.36932e-10, cumulative = -1.86361e-06
DICPCG:  Solving for p_rgh, Initial residual = 3.29272e-05, Final residual = 8.28189e-09, No Iterations 28
diagonal:  Solving for rho, Initial residual = 0, Final residual = 0, No Iterations 0
time step continuity errors : sum local = 1.93766e-11, global = 1.93744e-11, cumulative = -1.86359e-06
DILUPBiCGStab:  Solving for epsilon, Initial residual = 3.91921e-05, Final residual = 3.38332e-10, No Iterations 1
DILUPBiCGStab:  Solving for k, Initial residual = 6.57683e-05, Final residual = 7.89152e-10, No Iterations 1
ExecutionTime = 0.1 s  ClockTime = 0 s

Courant Number mean: 0.00656925 max: 0.03637
Time = 100.43

diagonal:  Solving for rho, Initial residual = 0, Final residual = 0, No Iterations 0
DILUPBiCGStab:  Solving for Ux, Initial residual = 0.000158804, Final residual = 1.28306e-09, No Iterations 1
DILUPBiCGStab:  Solving for Uy, Initial residual = 0.000172314, Final residual = 2.20266e-09, No Iterations 1
DILUPBiCGStab:  Solving for h, Initial residual = 0.000176041, Final residual = 1.74857e-09, No Iterations 1
DICPCG:  Solving for p_rgh, Initial residual = 0.001173, Final residual = 7.15446e-06, No Iterations 22
diagonal:  Solving for rho, Initial residual = 0, Final residual = 0, No Iterations 0
time step continuity errors : sum local = 4.60983e-10, global = -6.71652e-11, cumulative = -1.86366e-06
DICPCG:  Solving for p_rgh, Initial residual = 9.58896e-06, Final residual = 9.39681e-09, No Iterations 25
diagonal:  Solving for rho, Initial residual = 0, Final residual = 0, No Iterations 0
time step continuity errors : sum local = 5.47266e-12, global = 5.43004e-12, cumulative = -1.86366e-06
DILUPBiCGStab:  Solving for epsilon, Initial residual = 3.9373e-05, Final residual = 3.4017e-10, No Iterations 1
DILUPBiCGStab:  Solving for k, Initial residual = 6.58971e-05, Final residual = 7.91651e-10, No Iterations 1
ExecutionTime = 0.1 s  ClockTime = 0 s

Courant Number mean: 0.00656974 max: 0.0363809
Time = 100.44

diagonal:  Solving for rho, Initial residual = 0, Final residual = 0, No Iterations 0
DILUPBiCGStab:  Solving for Ux, Initial residual = 0.000163192, Final residual = 1.30932e-09, No Iterations 1
DILUPBiCGStab:  Solving for Uy, Initial residual = 0.000175727, Final residual = 2.23781e-09, No Iterations 1
DILUPBiCGStab:  Solving for h, Initial residual = 0.000164045, Final residual = 1.66663e-09, No Iterations 1
DICPCG:  Solving for p_rgh, Initial residual = 0.00135002, Final residual = 1.25673e-05, No Iterations 19
diagonal:  Solving for rho, Initial residual = 0, Final residual = 0, No Iterations 0
time step continuity errors : sum local = 7.90615e-10, global = -5.69613e-11, cumulative = -1.86371e-06
DICPCG:  Solving for p_rgh, Initial residual = 1.60555e-05, Final residual = 6.77896e-09, No Iterations 28
diagonal:  Solving for rho, Initial residual = 0, Final residual = 0, No Iterations 0
time step continuity errors : sum local = 7.6777e-12, global = -7.66683e-12, cumulative = -1.86372e-06
DILUPBiCGStab:  Solving for epsilon, Initial residual = 3.95304e-05, Final residual = 3.41815e-10, No Iterations 1
DILUPBiCGStab:  Solving for k, Initial residual = 6.6003e-05, Final residual = 7.93635e-10, No Iterations 1
ExecutionTime = 0.1 s  ClockTime = 0 s

Courant Number mean: 0.00657017 max: 0.0363909
Time = 100.45

diagonal:  Solving for rho, Initial residual = 0, Final residual = 0, No Iterations 0
DILUPBiCGStab:  Solving for Ux, Initial residual = 0.00014759, Final residual = 1.20225e-09, No Iterations 1
DILUPBiCGStab:  Solving for Uy, Initial residual = 0.000164228, Final residual = 2.10078e-09, No Iterations 1
DILUPBiCGStab:  Solving for h, Initial residual = 0.000153007, Final residual = 1.58926e-09, No Iterations 1
DICPCG:  Solving for p_rgh, Initial residual = 0.00248876, Final residual = 1.84973e-05, No Iterations 20
diagonal:  Solving for rho, Initial residual = 0, Final residual = 0, No Iterations 0
time step continuity errors : sum local = 1.15389e-09, global = -4.97527e-11, cumulative = -1.86377e-06
DICPCG:  Solving for p_rgh, Initial residual = 2.48269e-05, Final residual = 8.84025e-09, No Iterations 28
diagonal:  Solving for rho, Initial residual = 0, Final residual = 0, No Iterations 0
time step continuity errors : sum local = 1.80073e-11, global = -1.80012e-11, cumulative = -1.86379e-06
DILUPBiCGStab:  Solving for epsilon, Initial residual = 3.96428e-05, Final residual = 3.43513e-10, No Iterations 1
DILUPBiCGStab:  Solving for k, Initial residual = 6.60721e-05, Final residual = 7.94749e-10, No Iterations 1
ExecutionTime = 0.1 s  ClockTime = 0 s

Courant Number mean: 0.00657045 max: 0.0363992
Time = 100.46

diagonal:  Solving for rho, Initial residual = 0, Final residual = 0, No Iterations 0
DILUPBiCGStab:  Solving for Ux, Initial residual = 0.000117665, Final residual = 9.96642e-10, No Iterations 1
DILUPBiCGStab:  Solving for Uy, Initial residual = 0.000142752, Final residual = 1.83429e-09, No Iterations 1
DILUPBiCGStab:  Solving for h, Initial residual = 0.000144564, Final residual = 1.52636e-09, No Iterations 1
DICPCG:  Solving for p_rgh, Initial residual = 0.00339279, Final residual = 2.7075e-05, No Iterations 20
diagonal:  Solving for rho, Initial residual = 0, Final residual = 0, No Iterations 0
time step continuity errors : sum local = 1.68493e-09, global = -8.6783e-11, cumulative = -1.86388e-06
DICPCG:  Solving for p_rgh, Initial residual = 3.63996e-05, Final residual = 8.31633e-09, No Iterations 29
diagonal:  Solving for rho, Initial residual = 0, Final residual = 0, No Iterations 0
time step continuity errors : sum local = 2.42815e-11, global = -2.42815e-11, cumulative = -1.8639e-06
DILUPBiCGStab:  Solving for epsilon, Initial residual = 3.96999e-05, Final residual = 3.44375e-10, No Iterations 1
DILUPBiCGStab:  Solving for k, Initial residual = 6.60936e-05, Final residual = 7.94831e-10, No Iterations 1
ExecutionTime = 0.11 s  ClockTime = 0 s

Courant Number mean: 0.00657056 max: 0.0364052
Time = 100.47

diagonal:  Solving for rho, Initial residual = 0, Final residual = 0, No Iterations 0
DILUPBiCGStab:  Solving for Ux, Initial residual = 8.4312e-05, Final residual = 7.60388e-10, No Iterations 1
DILUPBiCGStab:  Solving for Uy, Initial residual = 0.000123344, Final residual = 1.54069e-09, No Iterations 1
DILUPBiCGStab:  Solving for h, Initial residual = 0.000139501, Final residual = 1.4844e-09, No Iterations 1
DICPCG:  Solving for p_rgh, Initial residual = 0.00377392, Final residual = 3.27464e-05, No Iterations 20
diagonal:  Solving for rho, Initial residual = 0, Final residual = 0, No Iterations 0
time step continuity errors : sum local = 2.00952e-09, global = -8.5801e-11, cumulative = -1.86399e-06
DICPCG:  Solving for p_rgh, Initial residual = 4.19907e-05, Final residual = 6.94702e-09, No Iterations 29
diagonal:  Solving for rho, Initial residual = 0, Final residual = 0, No Iterations 0
time step continuity errors : sum local = 2.60455e-11, global = -2.60455e-11, cumulative = -1.86401e-06
DILUPBiCGStab:  Solving for epsilon, Initial residual = 3.97003e-05, Final residual = 3.44365e-10, No Iterations 1
DILUPBiCGStab:  Solving for k, Initial residual = 6.60671e-05, Final residual = 7.93855e-10, No Iterations 1
ExecutionTime = 0.11 s  ClockTime = 0 s

Courant Number mean: 0.00657049 max: 0.0364088
Time = 100.48

diagonal:  Solving for rho, Initial residual = 0, Final residual = 0, No Iterations 0
DILUPBiCGStab:  Solving for Ux, Initial residual = 6.17944e-05, Final residual = 5.69481e-10, No Iterations 1
DILUPBiCGStab:  Solving for Uy, Initial residual = 0.000116742, Final residual = 1.37844e-09, No Iterations 1
DILUPBiCGStab:  Solving for h, Initial residual = 0.000138104, Final residual = 1.46609e-09, No Iterations 1
DICPCG:  Solving for p_rgh, Initial residual = 0.00355103, Final residual = 3.14536e-05, No Iterations 20
diagonal:  Solving for rho, Initial residual = 0, Final residual = 0, No Iterations 0
time step continuity errors : sum local = 1.90638e-09, global = -8.57416e-11, cumulative = -1.8641e-06
DICPCG:  Solving for p_rgh, Initial residual = 3.90827e-05, Final residual = 6.14237e-09, No Iterations 28
diagonal:  Solving for rho, Initial residual = 0, Final residual = 0, No Iterations 0
time step continuity errors : sum local = 2.35618e-11, global = -2.35618e-11, cumulative = -1.86412e-06
DILUPBiCGStab:  Solving for epsilon, Initial residual = 3.96505e-05, Final residual = 3.43619e-10, No Iterations 1
DILUPBiCGStab:  Solving for k, Initial residual = 6.59987e-05, Final residual = 7.91952e-10, No Iterations 1
ExecutionTime = 0.11 s  ClockTime = 0 s

Courant Number mean: 0.00657025 max: 0.0364104
Time = 100.49

diagonal:  Solving for rho, Initial residual = 0, Final residual = 0, No Iterations 0
DILUPBiCGStab:  Solving for Ux, Initial residual = 8.56137e-05, Final residual = 7.22539e-10, No Iterations 1
DILUPBiCGStab:  Solving for Uy, Initial residual = 0.000125289, Final residual = 1.45755e-09, No Iterations 1
DILUPBiCGStab:  Solving for h, Initial residual = 0.000140084, Final residual = 1.46966e-09, No Iterations 1
DICPCG:  Solving for p_rgh, Initial residual = 0.0028124, Final residual = 2.08467e-05, No Iterations 16
diagonal:  Solving for rho, Initial residual = 0, Final residual = 0, No Iterations 0
time step continuity errors : sum local = 1.2538e-09, global = -8.92941e-11, cumulative = -1.86421e-06
DICPCG:  Solving for p_rgh, Initial residual = 2.62722e-05, Final residual = 7.83112e-09, No Iterations 28
diagonal:  Solving for rho, Initial residual = 0, Final residual = 0, No Iterations 0
time step continuity errors : sum local = 1.77535e-11, global = -1.77525e-11, cumulative = -1.86423e-06
DILUPBiCGStab:  Solving for epsilon, Initial residual = 3.95634e-05, Final residual = 3.42377e-10, No Iterations 1
DILUPBiCGStab:  Solving for k, Initial residual = 6.58996e-05, Final residual = 7.8962e-10, No Iterations 1
ExecutionTime = 0.11 s  ClockTime = 0 s

Courant Number mean: 0.0065699 max: 0.0364106
Time = 100.5

diagonal:  Solving for rho, Initial residual = 0, Final residual = 0, No Iterations 0
DILUPBiCGStab:  Solving for Ux, Initial residual = 0.000108626, Final residual = 8.92224e-10, No Iterations 1
DILUPBiCGStab:  Solving for Uy, Initial residual = 0.000138964, Final residual = 1.60589e-09, No Iterations 1
DILUPBiCGStab:  Solving for h, Initial residual = 0.000144791, Final residual = 1.49047e-09, No Iterations 1
DICPCG:  Solving for p_rgh, Initial residual = 0.00172713, Final residual = 1.58675e-05, No Iterations 20
diagonal:  Solving for rho, Initial residual = 0, Final residual = 0, No Iterations 0
time step continuity errors : sum local = 9.54031e-10, global = -4.86417e-11, cumulative = -1.86428e-06
DICPCG:  Solving for p_rgh, Initial residual = 1.83558e-05, Final residual = 8.31343e-09, No Iterations 28
diagonal:  Solving for rho, Initial residual = 0, Final residual = 0, No Iterations 0
time step continuity errors : sum local = 9.90775e-12, global = -9.9025e-12, cumulative = -1.86429e-06
DILUPBiCGStab:  Solving for epsilon, Initial residual = 3.94547e-05, Final residual = 3.40838e-10, No Iterations 1
DILUPBiCGStab:  Solving for k, Initial residual = 6.58544e-05, Final residual = 7.87405e-10, No Iterations 1
ExecutionTime = 0.12 s  ClockTime = 0 s

Courant Number mean: 0.00656949 max: 0.0364099
Time = 100.51

diagonal:  Solving for rho, Initial residual = 0, Final residual = 0, No Iterations 0
DILUPBiCGStab:  Solving for Ux, Initial residual = 0.000120705, Final residual = 9.81768e-10, No Iterations 1
DILUPBiCGStab:  Solving for Uy, Initial residual = 0.000146732, Final residual = 1.67632e-09, No Iterations 1
DILUPBiCGStab:  Solving for h, Initial residual = 0.000151202, Final residual = 1.52113e-09, No Iterations 1
DICPCG:  Solving for p_rgh, Initial residual = 0.000522074, Final residual = 4.28901e-06, No Iterations 22
diagonal:  Solving for rho, Initial residual = 0, Final residual = 0, No Iterations 0
time step continuity errors : sum local = 2.71652e-10, global = -5.90143e-11, cumulative = -1.86435e-06
DICPCG:  Solving for p_rgh, Initial residual = 5.59885e-06, Final residual = 9.21441e-09, No Iterations 26
diagonal:  Solving for rho, Initial residual = 0, Final residual = 0, No Iterations 0
time step continuity errors : sum local = 1.5757e-12, global = -1.48004e-12, cumulative = -1.86435e-06
DILUPBiCGStab:  Solving for epsilon, Initial residual = 3.93403e-05, Final residual = 3.39238e-10, No Iterations 1
DILUPBiCGStab:  Solving for k, Initial residual = 6.58109e-05, Final residual = 7.85274e-10, No Iterations 1
ExecutionTime = 0.12 s  ClockTime = 0 s

Courant Number mean: 0.00656908 max: 0.0364093
Time = 100.52

diagonal:  Solving for rho, Initial residual = 0, Final residual = 0, No Iterations 0
DILUPBiCGStab:  Solving for Ux, Initial residual = 0.000120428, Final residual = 9.80203e-10, No Iterations 1
DILUPBiCGStab:  Solving for Uy, Initial residual = 0.000147443, Final residual = 1.66468e-09, No Iterations 1
DILUPBiCGStab:  Solving for h, Initial residual = 0.000158218, Final residual = 1.55473e-09, No Iterations 1
DICPCG:  Solving for p_rgh, Initial residual = 0.00107866, Final residual = 9.20026e-06, No Iterations 18
diagonal:  Solving for rho, Initial residual = 0, Final residual = 0, No Iterations 0
time step continuity errors : sum local = 5.60018e-10, global = -5.82857e-11, cumulative = -1.86441e-06
DICPCG:  Solving for p_rgh, Initial residual = 1.27813e-05, Final residual = 5.87492e-09, No Iterations 28
diagonal:  Solving for rho, Initial residual = 0, Final residual = 0, No Iterations 0
time step continuity errors : sum local = 6.13036e-12, global = 6.12224e-12, cumulative = -1.8644e-06
DILUPBiCGStab:  Solving for epsilon, Initial residual = 3.92343e-05, Final residual = 3.37787e-10, No Iterations 1
DILUPBiCGStab:  Solving for k, Initial residual = 6.57807e-05, Final residual = 7.83648e-10, No Iterations 1
ExecutionTime = 0.12 s  ClockTime = 0 s

Courant Number mean: 0.00656872 max: 0.0364093
Time = 100.53

diagonal:  Solving for rho, Initial residual = 0, Final residual = 0, No Iterations 0
DILUPBiCGStab:  Solving for Ux, Initial residual = 0.000109322, Final residual = 8.98245e-10, No Iterations 1
DILUPBiCGStab:  Solving for Uy, Initial residual = 0.000139222, Final residual = 1.57451e-09, No Iterations 1
DILUPBiCGStab:  Solving for h, Initial residual = 0.000164688, Final residual = 1.58427e-09, No Iterations 1
DICPCG:  Solving for p_rgh, Initial residual = 0.00175782, Final residual = 1.27022e-05, No Iterations 20
diagonal:  Solving for rho, Initial residual = 0, Final residual = 0, No Iterations 0
time step continuity errors : sum local = 7.53167e-10, global = -6.39397e-11, cumulative = -1.86446e-06
DICPCG:  Solving for p_rgh, Initial residual = 1.86599e-05, Final residual = 7.34606e-09, No Iterations 28
diagonal:  Solving for rho, Initial residual = 0, Final residual = 0, No Iterations 0
time step continuity errors : sum local = 1.18434e-11, global = 1.18372e-11, cumulative = -1.86445e-06
DILUPBiCGStab:  Solving for epsilon, Initial residual = 3.91468e-05, Final residual = 3.36659e-10, No Iterations 1
DILUPBiCGStab:  Solving for k, Initial residual = 6.57735e-05, Final residual = 7.8248e-10, No Iterations 1
ExecutionTime = 0.12 s  ClockTime = 0 s

Courant Number mean: 0.00656846 max: 0.0364103
Time = 100.54

diagonal:  Solving for rho, Initial residual = 0, Final residual = 0, No Iterations 0
DILUPBiCGStab:  Solving for Ux, Initial residual = 9.1049e-05, Final residual = 7.62102e-10, No Iterations 1
DILUPBiCGStab:  Solving for Uy, Initial residual = 0.000125418, Final residual = 1.4356e-09, No Iterations 1
DILUPBiCGStab:  Solving for h, Initial residual = 0.000169579, Final residual = 1.60474e-09, No Iterations 1
DICPCG:  Solving for p_rgh, Initial residual = 0.00220283, Final residual = 1.66256e-05, No Iterations 20
diagonal:  Solving for rho, Initial residual = 0, Final residual = 0, No Iterations 0
time step continuity errors : sum local = 9.88619e-10, global = -4.72424e-11, cumulative = -1.8645e-06
DICPCG:  Solving for p_rgh, Initial residual = 2.3707e-05, Final residual = 6.26407e-09, No Iterations 29
diagonal:  Solving for rho, Initial residual = 0, Final residual = 0, No Iterations 0
time step continuity errors : sum local = 1.49851e-11, global = 1.49851e-11, cumulative = -1.86448e-06
DILUPBiCGStab:  Solving for epsilon, Initial residual = 3.90826e-05, Final residual = 3.36116e-10, No Iterations 1
DILUPBiCGStab:  Solving for k, Initial residual = 6.57933e-05, Final residual = 7.8187e-10, No Iterations 1
ExecutionTime = 0.13 s  ClockTime = 0 s

Courant Number mean: 0.0065683 max: 0.0364126
Time = 100.55

diagonal:  Solving for rho, Initial residual = 0, Final residual = 0, No Iterations 0
DILUPBiCGStab:  Solving for Ux, Initial residual = 7.0786e-05, Final residual = 6.14036e-10, No Iterations 1
DILUPBiCGStab:  Solving for Uy, Initial residual = 0.000115451, Final residual = 1.28395e-09, No Iterations 1
DILUPBiCGStab:  Solving for h, Initial residual = 0.000172298, Final residual = 1.61264e-09, No Iterations 1
DICPCG:  Solving for p_rgh, Initial residual = 0.00231306, Final residual = 1.8141e-05, No Iterations 20
diagonal:  Solving for rho, Initial residual = 0, Final residual = 0, No Iterations 0
time step continuity errors : sum local = 1.08857e-09, global = -4.51017e-11, cumulative = -1.86453e-06
DICPCG:  Solving for p_rgh, Initial residual = 2.50204e-05, Final residual = 7.18799e-09, No Iterations 29
diagonal:  Solving for rho, Initial residual = 0, Final residual = 0, No Iterations 0
time step continuity errors : sum local = 1.5412e-11, global = 1.5412e-11, cumulative = -1.86451e-06
DILUPBiCGStab:  Solving for epsilon, Initial residual = 3.90855e-05, Final residual = 3.35925e-10, No Iterations 1
DILUPBiCGStab:  Solving for k, Initial residual = 6.58397e-05, Final residual = 7.82729e-10, No Iterations 1
ExecutionTime = 0.13 s  ClockTime = 0 s

Courant Number mean: 0.00656824 max: 0.0364162
Time = 100.56

diagonal:  Solving for rho, Initial residual = 0, Final residual = 0, No Iterations 0
DILUPBiCGStab:  Solving for Ux, Initial residual = 6.21841e-05, Final residual = 5.76197e-10, No Iterations 1
DILUPBiCGStab:  Solving for Uy, Initial residual = 0.000112247, Final residual = 1.29318e-09, No Iterations 1
DILUPBiCGStab:  Solving for h, Initial residual = 0.00017266, Final residual = 1.60672e-09, No Iterations 1
DICPCG:  Solving for p_rgh, Initial residual = 0.00206246, Final residual = 1.71727e-05, No Iterations 20
diagonal:  Solving for rho, Initial residual = 0, Final residual = 0, No Iterations 0
time step continuity errors : sum local = 1.03407e-09, global = -4.52332e-11, cumulative = -1.86456e-06
DICPCG:  Solving for p_rgh, Initial residual = 2.25585e-05, Final residual = 8.96381e-09, No Iterations 27
diagonal:  Solving for rho, Initial residual = 0, Final residual = 0, No Iterations 0
time step continuity errors : sum local = 1.33588e-11, global = 1.33542e-11, cumulative = -1.86455e-06
DILUPBiCGStab:  Solving for epsilon, Initial residual = 3.92014e-05, Final residual = 3.35993e-10, No Iterations 1
DILUPBiCGStab:  Solving for k, Initial residual = 6.59077e-05, Final residual = 7.84062e-10, No Iterations 1
ExecutionTime = 0.13 s  ClockTime = 0 s

Courant Number mean: 0.00656828 max: 0.0364209
Time = 100.57

diagonal:  Solving for rho, Initial residual = 0, Final residual = 0, No Iterations 0
DILUPBiCGStab:  Solving for Ux, Initial residual = 7.40635e-05, Final residual = 6.78839e-10, No Iterations 1
DILUPBiCGStab:  Solving for Uy, Initial residual = 0.000114537, Final residual = 1.36718e-09, No Iterations 1
DILUPBiCGStab:  Solving for h, Initial residual = 0.000170898, Final residual = 1.58829e-09, No Iterations 1
DICPCG:  Solving for p_rgh, Initial residual = 0.00153716, Final residual = 1.1461e-05, No Iterations 16
diagonal:  Solving for rho, Initial residual = 0, Final residual = 0, No Iterations 0
time step continuity errors : sum local = 7.14773e-10, global = -4.55836e-11, cumulative = -1.86459e-06
DICPCG:  Solving for p_rgh, Initial residual = 1.42809e-05, Final residual = 9.81003e-09, No Iterations 27
diagonal:  Solving for rho, Initial residual = 0, Final residual = 0, No Iterations 0
time step continuity errors : sum local = 9.51049e-12, global = 9.4956e-12, cumulative = -1.86458e-06
DILUPBiCGStab:  Solving for epsilon, Initial residual = 3.93339e-05, Final residual = 3.3622e-10, No Iterations 1
DILUPBiCGStab:  Solving for k, Initial residual = 6.59878e-05, Final residual = 7.85736e-10, No Iterations 1
ExecutionTime = 0.13 s  ClockTime = 0 s

Courant Number mean: 0.00656838 max: 0.0364262
Time = 100.58

diagonal:  Solving for rho, Initial residual = 0, Final residual = 0, No Iterations 0
DILUPBiCGStab:  Solving for Ux, Initial residual = 8.41003e-05, Final residual = 7.54512e-10, No Iterations 1
DILUPBiCGStab:  Solving for Uy, Initial residual = 0.000118435, Final residual = 1.43935e-09, No Iterations 1
DILUPBiCGStab:  Solving for h, Initial residual = 0.000167556, Final residual = 1.56056e-09, No Iterations 1
DICPCG:  Solving for p_rgh, Initial residual = 0.000855208, Final residual = 5.62554e-06, No Iterations 21
diagonal:  Solving for rho, Initial residual = 0, Final residual = 0, No Iterations 0
time step continuity errors : sum local = 3.55008e-10, global = -6.74302e-11, cumulative = -1.86465e-06
DICPCG:  Solving for p_rgh, Initial residual = 7.35487e-06, Final residual = 9.67712e-09, No Iterations 25
diagonal:  Solving for rho, Initial residual = 0, Final residual = 0, No Iterations 0
time step continuity errors : sum local = 4.64011e-12, global = 4.5873e-12, cumulative = -1.86464e-06
DILUPBiCGStab:  Solving for epsilon, Initial residual = 3.94694e-05, Final residual = 3.36611e-10, No Iterations 1
DILUPBiCGStab:  Solving for k, Initial residual = 6.60693e-05, Final residual = 7.8748e-10, No Iterations 1
ExecutionTime = 0.13 s  ClockTime = 0 s

Courant Number mean: 0.0065685 max: 0.0364318
Time = 100.59

diagonal:  Solving for rho, Initial residual = 0, Final residual = 0, No Iterations 0
DILUPBiCGStab:  Solving for Ux, Initial residual = 8.86118e-05, Final residual = 7.86344e-10, No Iterations 1
DILUPBiCGStab:  Solving for Uy, Initial residual = 0.000120796, Final residual = 1.46817e-09, No Iterations 1
DILUPBiCGStab:  Solving for h, Initial residual = 0.000163362, Final residual = 1.52779e-09, No Iterations 1
DICPCG:  Solving for p_rgh, Initial residual = 0.00030132, Final residual = 1.83491e-06, No Iterations 22
[...]
DICPCG:  Solving for p_rgh, Initial residual = 9.60221e-05, Final residual = 7.77309e-07, No Iterations 18
diagonal:  Solving for rho, Initial residual = 0, Final residual = 0, No Iterations 0
time step continuity errors : sum local = 7.9283e-11, global = -6.19926e-11, cumulative = -1.87211e-06
DICPCG:  Solving for p_rgh, Initial residual = 1.6618e-06, Final residual = 8.57688e-09, No Iterations 23
diagonal:  Solving for rho, Initial residual = 0, Final residual = 0, No Iterations 0
time step continuity errors : sum local = 5.43268e-13, global = 4.05869e-14, cumulative = -1.87211e-06
DILUPBiCGStab:  Solving for epsilon, Initial residual = 3.14565e-05, Final residual = 2.43646e-10, No Iterations 1
DILUPBiCGStab:  Solving for k, Initial residual = 5.7758e-05, Final residual = 6.73392e-10, No Iterations 1
ExecutionTime = 0.42 s  ClockTime = 0 s

Courant Number mean: 0.00655967 max: 0.0365561
Time = 101.8

diagonal:  Solving for rho, Initial residual = 0, Final residual = 0, No Iterations 0
DILUPBiCGStab:  Solving for Ux, Initial residual = 4.62759e-05, Final residual = 3.76604e-10, No Iterations 1
DILUPBiCGStab:  Solving for Uy, Initial residual = 7.50059e-05, Final residual = 6.30182e-10, No Iterations 1
DILUPBiCGStab:  Solving for h, Initial residual = 0.000158057, Final residual = 1.17687e-09, No Iterations 1
DICPCG:  Solving for p_rgh, Initial residual = 9.59134e-05, Final residual = 7.95665e-07, No Iterations 18
diagonal:  Solving for rho, Initial residual = 0, Final residual = 0, No Iterations 0
time step continuity errors : sum local = 7.98085e-11, global = -6.19521e-11, cumulative = -1.87217e-06
DICPCG:  Solving for p_rgh, Initial residual = 1.67036e-06, Final residual = 8.60529e-09, No Iterations 23
diagonal:  Solving for rho, Initial residual = 0, Final residual = 0, No Iterations 0
time step continuity errors : sum local = 5.35703e-13, global = 3.45263e-14, cumulative = -1.87217e-06
DILUPBiCGStab:  Solving for epsilon, Initial residual = 3.13609e-05, Final residual = 2.42623e-10, No Iterations 1
DILUPBiCGStab:  Solving for k, Initial residual = 5.76739e-05, Final residual = 6.71632e-10, No Iterations 1
ExecutionTime = 0.42 s  ClockTime = 0 s

Courant Number mean: 0.00655959 max: 0.0365561
Time = 101.81

diagonal:  Solving for rho, Initial residual = 0, Final residual = 0, No Iterations 0
DILUPBiCGStab:  Solving for Ux, Initial residual = 4.61798e-05, Final residual = 3.75647e-10, No Iterations 1
DILUPBiCGStab:  Solving for Uy, Initial residual = 7.48178e-05, Final residual = 6.28134e-10, No Iterations 1
DILUPBiCGStab:  Solving for h, Initial residual = 0.000158034, Final residual = 1.17612e-09, No Iterations 1
DICPCG:  Solving for p_rgh, Initial residual = 9.57602e-05, Final residual = 8.13182e-07, No Iterations 18
diagonal:  Solving for rho, Initial residual = 0, Final residual = 0, No Iterations 0
time step continuity errors : sum local = 8.03229e-11, global = -6.1899e-11, cumulative = -1.87223e-06
DICPCG:  Solving for p_rgh, Initial residual = 1.67843e-06, Final residual = 8.64857e-09, No Iterations 23
diagonal:  Solving for rho, Initial residual = 0, Final residual = 0, No Iterations 0
time step continuity errors : sum local = 5.4721e-13, global = 3.1277e-14, cumulative = -1.87223e-06
DILUPBiCGStab:  Solving for epsilon, Initial residual = 3.12657e-05, Final residual = 2.41599e-10, No Iterations 1
DILUPBiCGStab:  Solving for k, Initial residual = 5.7589e-05, Final residual = 6.69858e-10, No Iterations 1
ExecutionTime = 0.43 s  ClockTime = 0 s

Courant Number mean: 0.00655952 max: 0.0365561
Time = 101.82

diagonal:  Solving for rho, Initial residual = 0, Final residual = 0, No Iterations 0
DILUPBiCGStab:  Solving for Ux, Initial residual = 4.60843e-05, Final residual = 3.74694e-10, No Iterations 1
DILUPBiCGStab:  Solving for Uy, Initial residual = 7.46301e-05, Final residual = 6.26097e-10, No Iterations 1
DILUPBiCGStab:  Solving for h, Initial residual = 0.000158011, Final residual = 1.17537e-09, No Iterations 1
DICPCG:  Solving for p_rgh, Initial residual = 9.55743e-05, Final residual = 8.29123e-07, No Iterations 18
diagonal:  Solving for rho, Initial residual = 0, Final residual = 0, No Iterations 0
time step continuity errors : sum local = 8.07896e-11, global = -6.18257e-11, cumulative = -1.8723e-06
DICPCG:  Solving for p_rgh, Initial residual = 1.68537e-06, Final residual = 8.69042e-09, No Iterations 23
diagonal:  Solving for rho, Initial residual = 0, Final residual = 0, No Iterations 0
time step continuity errors : sum local = 5.44004e-13, global = 3.44716e-14, cumulative = -1.8723e-06
DILUPBiCGStab:  Solving for epsilon, Initial residual = 3.11702e-05, Final residual = 2.40573e-10, No Iterations 1
DILUPBiCGStab:  Solving for k, Initial residual = 5.7503e-05, Final residual = 6.68071e-10, No Iterations 1
ExecutionTime = 0.43 s  ClockTime = 0 s

Courant Number mean: 0.00655945 max: 0.0365561
Time = 101.83

diagonal:  Solving for rho, Initial residual = 0, Final residual = 0, No Iterations 0
DILUPBiCGStab:  Solving for Ux, Initial residual = 4.59891e-05, Final residual = 3.73797e-10, No Iterations 1
DILUPBiCGStab:  Solving for Uy, Initial residual = 7.44425e-05, Final residual = 6.2407e-10, No Iterations 1
DILUPBiCGStab:  Solving for h, Initial residual = 0.000157987, Final residual = 1.17462e-09, No Iterations 1
DICPCG:  Solving for p_rgh, Initial residual = 9.53447e-05, Final residual = 8.42739e-07, No Iterations 18
diagonal:  Solving for rho, Initial residual = 0, Final residual = 0, No Iterations 0
time step continuity errors : sum local = 8.11678e-11, global = -6.17523e-11, cumulative = -1.87236e-06
DICPCG:  Solving for p_rgh, Initial residual = 1.69109e-06, Final residual = 8.73528e-09, No Iterations 23
diagonal:  Solving for rho, Initial residual = 0, Final residual = 0, No Iterations 0
time step continuity errors : sum local = 5.54207e-13, global = 4.30156e-14, cumulative = -1.87236e-06
DILUPBiCGStab:  Solving for epsilon, Initial residual = 3.10745e-05, Final residual = 2.39547e-10, No Iterations 1
DILUPBiCGStab:  Solving for k, Initial residual = 5.7416e-05, Final residual = 6.66272e-10, No Iterations 1
ExecutionTime = 0.43 s  ClockTime = 0 s

Courant Number mean: 0.00655937 max: 0.0365561
Time = 101.84

diagonal:  Solving for rho, Initial residual = 0, Final residual = 0, No Iterations 0
DILUPBiCGStab:  Solving for Ux, Initial residual = 4.58945e-05, Final residual = 3.72903e-10, No Iterations 1
DILUPBiCGStab:  Solving for Uy, Initial residual = 7.42554e-05, Final residual = 6.22052e-10, No Iterations 1
DILUPBiCGStab:  Solving for h, Initial residual = 0.000157963, Final residual = 1.17389e-09, No Iterations 1
DICPCG:  Solving for p_rgh, Initial residual = 9.51411e-05, Final residual = 8.54171e-07, No Iterations 18
diagonal:  Solving for rho, Initial residual = 0, Final residual = 0, No Iterations 0
time step continuity errors : sum local = 8.14917e-11, global = -6.16864e-11, cumulative = -1.87242e-06
DICPCG:  Solving for p_rgh, Initial residual = 1.695e-06, Final residual = 8.76689e-09, No Iterations 23
diagonal:  Solving for rho, Initial residual = 0, Final residual = 0, No Iterations 0
time step continuity errors : sum local = 5.71903e-13, global = 3.70753e-14, cumulative = -1.87242e-06
DILUPBiCGStab:  Solving for epsilon, Initial residual = 3.09785e-05, Final residual = 2.38519e-10, No Iterations 1
DILUPBiCGStab:  Solving for k, Initial residual = 5.73281e-05, Final residual = 6.64461e-10, No Iterations 1
ExecutionTime = 0.43 s  ClockTime = 0 s

Courant Number mean: 0.0065593 max: 0.0365562
Time = 101.85

diagonal:  Solving for rho, Initial residual = 0, Final residual = 0, No Iterations 0
DILUPBiCGStab:  Solving for Ux, Initial residual = 4.58002e-05, Final residual = 3.72011e-10, No Iterations 1
DILUPBiCGStab:  Solving for Uy, Initial residual = 7.40688e-05, Final residual = 6.20066e-10, No Iterations 1
DILUPBiCGStab:  Solving for h, Initial residual = 0.000157939, Final residual = 1.17315e-09, No Iterations 1
DICPCG:  Solving for p_rgh, Initial residual = 9.49524e-05, Final residual = 8.63567e-07, No Iterations 18
diagonal:  Solving for rho, Initial residual = 0, Final residual = 0, No Iterations 0
time step continuity errors : sum local = 8.17518e-11, global = -6.16403e-11, cumulative = -1.87248e-06
DICPCG:  Solving for p_rgh, Initial residual = 1.6981e-06, Final residual = 8.8036e-09, No Iterations 23
diagonal:  Solving for rho, Initial residual = 0, Final residual = 0, No Iterations 0
time step continuity errors : sum local = 5.66617e-13, global = 3.80945e-14, cumulative = -1.87248e-06
DILUPBiCGStab:  Solving for epsilon, Initial residual = 3.08823e-05, Final residual = 2.37491e-10, No Iterations 1
DILUPBiCGStab:  Solving for k, Initial residual = 5.72392e-05, Final residual = 6.62637e-10, No Iterations 1
ExecutionTime = 0.44 s  ClockTime = 0 s

Courant Number mean: 0.00655923 max: 0.0365562
Time = 101.86

diagonal:  Solving for rho, Initial residual = 0, Final residual = 0, No Iterations 0
DILUPBiCGStab:  Solving for Ux, Initial residual = 4.57062e-05, Final residual = 3.71125e-10, No Iterations 1
DILUPBiCGStab:  Solving for Uy, Initial residual = 7.38825e-05, Final residual = 6.18113e-10, No Iterations 1
DILUPBiCGStab:  Solving for h, Initial residual = 0.000157916, Final residual = 1.17243e-09, No Iterations 1
DICPCG:  Solving for p_rgh, Initial residual = 9.4785e-05, Final residual = 8.71317e-07, No Iterations 18
diagonal:  Solving for rho, Initial residual = 0, Final residual = 0, No Iterations 0
time step continuity errors : sum local = 8.19512e-11, global = -6.16158e-11, cumulative = -1.87254e-06
DICPCG:  Solving for p_rgh, Initial residual = 1.70029e-06, Final residual = 8.83054e-09, No Iterations 23
diagonal:  Solving for rho, Initial residual = 0, Final residual = 0, No Iterations 0
time step continuity errors : sum local = 5.5233e-13, global = 3.09678e-14, cumulative = -1.87254e-06
DILUPBiCGStab:  Solving for epsilon, Initial residual = 3.0786e-05, Final residual = 2.36461e-10, No Iterations 1
DILUPBiCGStab:  Solving for k, Initial residual = 5.71495e-05, Final residual = 6.60802e-10, No Iterations 1
ExecutionTime = 0.44 s  ClockTime = 0 s

Courant Number mean: 0.00655916 max: 0.0365562
Time = 101.87

diagonal:  Solving for rho, Initial residual = 0, Final residual = 0, No Iterations 0
DILUPBiCGStab:  Solving for Ux, Initial residual = 4.56131e-05, Final residual = 3.70246e-10, No Iterations 1
DILUPBiCGStab:  Solving for Uy, Initial residual = 7.36967e-05, Final residual = 6.16173e-10, No Iterations 1
DILUPBiCGStab:  Solving for h, Initial residual = 0.000157892, Final residual = 1.17172e-09, No Iterations 1
DICPCG:  Solving for p_rgh, Initial residual = 9.46424e-05, Final residual = 8.78426e-07, No Iterations 18
diagonal:  Solving for rho, Initial residual = 0, Final residual = 0, No Iterations 0
time step continuity errors : sum local = 8.21217e-11, global = -6.15967e-11, cumulative = -1.8726e-06
DICPCG:  Solving for p_rgh, Initial residual = 1.70183e-06, Final residual = 8.86213e-09, No Iterations 23
diagonal:  Solving for rho, Initial residual = 0, Final residual = 0, No Iterations 0
time step continuity errors : sum local = 5.6772e-13, global = 3.83926e-14, cumulative = -1.8726e-06
DILUPBiCGStab:  Solving for epsilon, Initial residual = 3.06894e-05, Final residual = 2.35431e-10, No Iterations 1
DILUPBiCGStab:  Solving for k, Initial residual = 5.70588e-05, Final residual = 6.58956e-10, No Iterations 1
ExecutionTime = 0.44 s  ClockTime = 0 s

Courant Number mean: 0.00655908 max: 0.0365562
Time = 101.88

diagonal:  Solving for rho, Initial residual = 0, Final residual = 0, No Iterations 0
DILUPBiCGStab:  Solving for Ux, Initial residual = 4.55203e-05, Final residual = 3.69371e-10, No Iterations 1
DILUPBiCGStab:  Solving for Uy, Initial residual = 7.35119e-05, Final residual = 6.14249e-10, No Iterations 1
DILUPBiCGStab:  Solving for h, Initial residual = 0.000157869, Final residual = 1.17101e-09, No Iterations 1
DICPCG:  Solving for p_rgh, Initial residual = 9.45253e-05, Final residual = 8.8504e-07, No Iterations 18
diagonal:  Solving for rho, Initial residual = 0, Final residual = 0, No Iterations 0
time step continuity errors : sum local = 8.22878e-11, global = -6.1609e-11, cumulative = -1.87267e-06
DICPCG:  Solving for p_rgh, Initial residual = 1.70316e-06, Final residual = 8.88872e-09, No Iterations 23
diagonal:  Solving for rho, Initial residual = 0, Final residual = 0, No Iterations 0
time step continuity errors : sum local = 5.65906e-13, global = 4.28492e-14, cumulative = -1.87267e-06
DILUPBiCGStab:  Solving for epsilon, Initial residual = 3.05926e-05, Final residual = 2.344e-10, No Iterations 1
DILUPBiCGStab:  Solving for k, Initial residual = 5.69672e-05, Final residual = 6.57101e-10, No Iterations 1
ExecutionTime = 0.44 s  ClockTime = 0 s

Courant Number mean: 0.00655901 max: 0.0365561
Time = 101.89

diagonal:  Solving for rho, Initial residual = 0, Final residual = 0, No Iterations 0
DILUPBiCGStab:  Solving for Ux, Initial residual = 4.54278e-05, Final residual = 3.68501e-10, No Iterations 1
DILUPBiCGStab:  Solving for Uy, Initial residual = 7.33285e-05, Final residual = 6.12343e-10, No Iterations 1
DILUPBiCGStab:  Solving for h, Initial residual = 0.000157846, Final residual = 1.17031e-09, No Iterations 1
DICPCG:  Solving for p_rgh, Initial residual = 9.443e-05, Final residual = 8.914e-07, No Iterations 18
diagonal:  Solving for rho, Initial residual = 0, Final residual = 0, No Iterations 0
time step continuity errors : sum local = 8.24302e-11, global = -6.16269e-11, cumulative = -1.87273e-06
DICPCG:  Solving for p_rgh, Initial residual = 1.70436e-06, Final residual = 8.90796e-09, No Iterations 23
diagonal:  Solving for rho, Initial residual = 0, Final residual = 0, No Iterations 0
time step continuity errors : sum local = 5.503e-13, global = 4.1642e-14, cumulative = -1.87273e-06
DILUPBiCGStab:  Solving for epsilon, Initial residual = 3.04957e-05, Final residual = 2.33379e-10, No Iterations 1
DILUPBiCGStab:  Solving for k, Initial residual = 5.68757e-05, Final residual = 6.55235e-10, No Iterations 1
ExecutionTime = 0.44 s  ClockTime = 0 s

Courant Number mean: 0.00655894 max: 0.0365561
Time = 101.9

diagonal:  Solving for rho, Initial residual = 0, Final residual = 0, No Iterations 0
DILUPBiCGStab:  Solving for Ux, Initial residual = 4.53354e-05, Final residual = 3.67634e-10, No Iterations 1
DILUPBiCGStab:  Solving for Uy, Initial residual = 7.3146e-05, Final residual = 6.10454e-10, No Iterations 1
DILUPBiCGStab:  Solving for h, Initial residual = 0.000157823, Final residual = 1.16962e-09, No Iterations 1
DICPCG:  Solving for p_rgh, Initial residual = 9.43491e-05, Final residual = 8.97746e-07, No Iterations 18
diagonal:  Solving for rho, Initial residual = 0, Final residual = 0, No Iterations 0
time step continuity errors : sum local = 8.25907e-11, global = -6.16498e-11, cumulative = -1.87279e-06
DICPCG:  Solving for p_rgh, Initial residual = 1.70605e-06, Final residual = 8.93445e-09, No Iterations 23
diagonal:  Solving for rho, Initial residual = 0, Final residual = 0, No Iterations 0
time step continuity errors : sum local = 5.65479e-13, global = 3.24329e-14, cumulative = -1.87279e-06
DILUPBiCGStab:  Solving for epsilon, Initial residual = 3.03986e-05, Final residual = 2.32361e-10, No Iterations 1
DILUPBiCGStab:  Solving for k, Initial residual = 5.67837e-05, Final residual = 6.5336e-10, No Iterations 1
ExecutionTime = 0.45 s  ClockTime = 0 s

Courant Number mean: 0.00655886 max: 0.0365561
Time = 101.91

diagonal:  Solving for rho, Initial residual = 0, Final residual = 0, No Iterations 0
DILUPBiCGStab:  Solving for Ux, Initial residual = 4.52432e-05, Final residual = 3.66771e-10, No Iterations 1
DILUPBiCGStab:  Solving for Uy, Initial residual = 7.29651e-05, Final residual = 6.08585e-10, No Iterations 1
DILUPBiCGStab:  Solving for h, Initial residual = 0.0001578, Final residual = 1.16894e-09, No Iterations 1
DICPCG:  Solving for p_rgh, Initial residual = 9.42721e-05, Final residual = 9.04227e-07, No Iterations 18
diagonal:  Solving for rho, Initial residual = 0, Final residual = 0, No Iterations 0
time step continuity errors : sum local = 8.27706e-11, global = -6.16527e-11, cumulative = -1.87285e-06
DICPCG:  Solving for p_rgh, Initial residual = 1.70777e-06, Final residual = 8.93862e-09, No Iterations 23
diagonal:  Solving for rho, Initial residual = 0, Final residual = 0, No Iterations 0
time step continuity errors : sum local = 5.65956e-13, global = 4.32905e-14, cumulative = -1.87285e-06
DILUPBiCGStab:  Solving for epsilon, Initial residual = 3.03014e-05, Final residual = 2.31343e-10, No Iterations 1
DILUPBiCGStab:  Solving for k, Initial residual = 5.66909e-05, Final residual = 6.51475e-10, No Iterations 1
ExecutionTime = 0.45 s  ClockTime = 0 s

Courant Number mean: 0.00655879 max: 0.0365561
Time = 101.92

diagonal:  Solving for rho, Initial residual = 0, Final residual = 0, No Iterations 0
DILUPBiCGStab:  Solving for Ux, Initial residual = 4.51512e-05, Final residual = 3.65911e-10, No Iterations 1
DILUPBiCGStab:  Solving for Uy, Initial residual = 7.27896e-05, Final residual = 6.06743e-10, No Iterations 1
DILUPBiCGStab:  Solving for h, Initial residual = 0.000157777, Final residual = 1.16826e-09, No Iterations 1
DICPCG:  Solving for p_rgh, Initial residual = 9.41868e-05, Final residual = 9.1087e-07, No Iterations 18
diagonal:  Solving for rho, Initial residual = 0, Final residual = 0, No Iterations 0
time step continuity errors : sum local = 8.29394e-11, global = -6.1656e-11, cumulative = -1.87291e-06
DICPCG:  Solving for p_rgh, Initial residual = 1.7093e-06, Final residual = 8.95105e-09, No Iterations 23
diagonal:  Solving for rho, Initial residual = 0, Final residual = 0, No Iterations 0
time step continuity errors : sum local = 5.61051e-13, global = 5.47767e-14, cumulative = -1.87291e-06
DILUPBiCGStab:  Solving for epsilon, Initial residual = 3.0204e-05, Final residual = 2.30324e-10, No Iterations 1
DILUPBiCGStab:  Solving for k, Initial residual = 5.65973e-05, Final residual = 6.4958e-10, No Iterations 1
ExecutionTime = 0.45 s  ClockTime = 0 s

Courant Number mean: 0.00655872 max: 0.0365561
Time = 101.93

diagonal:  Solving for rho, Initial residual = 0, Final residual = 0, No Iterations 0
DILUPBiCGStab:  Solving for Ux, Initial residual = 4.50595e-05, Final residual = 3.65055e-10, No Iterations 1
DILUPBiCGStab:  Solving for Uy, Initial residual = 7.26149e-05, Final residual = 6.04937e-10, No Iterations 1
DILUPBiCGStab:  Solving for h, Initial residual = 0.000157753, Final residual = 1.16759e-09, No Iterations 1
DICPCG:  Solving for p_rgh, Initial residual = 9.40866e-05, Final residual = 9.17624e-07, No Iterations 18
diagonal:  Solving for rho, Initial residual = 0, Final residual = 0, No Iterations 0
time step continuity errors : sum local = 8.31453e-11, global = -6.16702e-11, cumulative = -1.87297e-06
DICPCG:  Solving for p_rgh, Initial residual = 1.71125e-06, Final residual = 8.9506e-09, No Iterations 23
diagonal:  Solving for rho, Initial residual = 0, Final residual = 0, No Iterations 0
time step continuity errors : sum local = 5.6545e-13, global = 3.92595e-14, cumulative = -1.87297e-06
DILUPBiCGStab:  Solving for epsilon, Initial residual = 3.01066e-05, Final residual = 2.29307e-10, No Iterations 1
DILUPBiCGStab:  Solving for k, Initial residual = 5.65029e-05, Final residual = 6.47676e-10, No Iterations 1
ExecutionTime = 0.45 s  ClockTime = 0 s

Courant Number mean: 0.00655864 max: 0.036556
Time = 101.94

diagonal:  Solving for rho, Initial residual = 0, Final residual = 0, No Iterations 0
DILUPBiCGStab:  Solving for Ux, Initial residual = 4.4968e-05, Final residual = 3.64204e-10, No Iterations 1
DILUPBiCGStab:  Solving for Uy, Initial residual = 7.24411e-05, Final residual = 6.03159e-10, No Iterations 1
DILUPBiCGStab:  Solving for h, Initial residual = 0.00015773, Final residual = 1.16692e-09, No Iterations 1
