/*---------------------------------------------------------------------------*\
  =========                 |
  \\      /  F ield         | OpenFOAM: The Open Source CFD Toolbox
   \\    /   O peration     | Website:  https://openfoam.org
    \\  /    A nd           | Version:  6
     \\/     M anipulation  |
\*---------------------------------------------------------------------------*/
Build  : 6-f934eabb0d52
Exec   : buoyantPimpleFoam -case /home/mamitsu/OpenFOAM/mamitsu-6/run/aircond5/Case/case7
Date   : May 15 2019
Time   : 17:26:13
Host   : "mamitsu-desktop"
PID    : 5841
I/O    : uncollated
Case   : /home/mamitsu/OpenFOAM/mamitsu-6/run/aircond5/Case/case7
nProcs : 1
sigFpe : Enabling floating point exception trapping (FOAM_SIGFPE).
fileModificationChecking : Monitoring run-time modified files using timeStampMaster (fileModificationSkew 10)
allowSystemOperations : Allowing user-supplied system call operations

// * * * * * * * * * * * * * * * * * * * * * * * * * * * * * * * * * * * * * //
Create time

Create mesh for time = 100


PIMPLE: No convergence criteria found


PIMPLE: Operating solver in PISO mode

Reading thermophysical properties

Selecting thermodynamics package
{
    type            heRhoThermo;
    mixture         pureMixture;
    transport       const;
    thermo          hConst;
    equationOfState perfectGas;
    specie          specie;
    energy          sensibleEnthalpy;
}

Reading field U

Reading/calculating face flux field phi

Creating turbulence model

Selecting turbulence model type RAS
Selecting RAS turbulence model kEpsilon
RAS
{
    RASModel        kEpsilon;
    turbulence      on;
    printCoeffs     on;
    Cmu             0.09;
    C1              1.44;
    C2              1.92;
    C3              0;
    sigmak          1;
    sigmaEps        1.3;
}


Reading g

Reading hRef
Calculating field g.h

Reading field p_rgh

Creating field dpdt

Creating field kinetic energy K

No MRF models present

Radiation model not active: radiationProperties not found
Selecting radiationModel none
No finite volume options present
Courant Number mean: 0.00826551 max: 0.0393021

Starting time loop

Courant Number mean: 0.00826551 max: 0.0393021
Time = 100.01

diagonal:  Solving for rho, Initial residual = 0, Final residual = 0, No Iterations 0
DILUPBiCGStab:  Solving for Ux, Initial residual = 0.00369222, Final residual = 5.62861e-08, No Iterations 1
DILUPBiCGStab:  Solving for Uy, Initial residual = 0.0658872, Final residual = 6.8756e-07, No Iterations 1
DILUPBiCGStab:  Solving for h, Initial residual = 0.000670299, Final residual = 1.19953e-08, No Iterations 1
DICPCG:  Solving for p_rgh, Initial residual = 0.956998, Final residual = 0.00723172, No Iterations 20
diagonal:  Solving for rho, Initial residual = 0, Final residual = 0, No Iterations 0
time step continuity errors : sum local = 9.8628e-06, global = -2.80885e-07, cumulative = -2.80885e-07
DICPCG:  Solving for p_rgh, Initial residual = 0.0547988, Final residual = 8.08186e-09, No Iterations 38
diagonal:  Solving for rho, Initial residual = 0, Final residual = 0, No Iterations 0
time step continuity errors : sum local = 2.61317e-09, global = -2.61317e-09, cumulative = -2.83498e-07
DILUPBiCGStab:  Solving for epsilon, Initial residual = 0.000189828, Final residual = 2.359e-09, No Iterations 1
DILUPBiCGStab:  Solving for k, Initial residual = 0.000188668, Final residual = 4.14288e-09, No Iterations 1
ExecutionTime = 0 s  ClockTime = 0 s

Courant Number mean: 0.00825204 max: 0.0423995
Time = 100.02

diagonal:  Solving for rho, Initial residual = 0, Final residual = 0, No Iterations 0
DILUPBiCGStab:  Solving for Ux, Initial residual = 0.0184025, Final residual = 1.75421e-07, No Iterations 1
DILUPBiCGStab:  Solving for Uy, Initial residual = 0.012371, Final residual = 2.05294e-07, No Iterations 1
DILUPBiCGStab:  Solving for h, Initial residual = 0.000378922, Final residual = 6.40703e-09, No Iterations 1
DICPCG:  Solving for p_rgh, Initial residual = 0.439201, Final residual = 0.00343071, No Iterations 24
diagonal:  Solving for rho, Initial residual = 0, Final residual = 0, No Iterations 0
time step continuity errors : sum local = 5.80083e-07, global = 3.71703e-09, cumulative = -2.79781e-07
DICPCG:  Solving for p_rgh, Initial residual = 0.0096525, Final residual = 4.64541e-09, No Iterations 38
diagonal:  Solving for rho, Initial residual = 0, Final residual = 0, No Iterations 0
time step continuity errors : sum local = 1.94568e-09, global = -1.64992e-09, cumulative = -2.81431e-07
DILUPBiCGStab:  Solving for epsilon, Initial residual = 0.000176079, Final residual = 2.15785e-09, No Iterations 1
DILUPBiCGStab:  Solving for k, Initial residual = 0.000179325, Final residual = 3.81557e-09, No Iterations 1
ExecutionTime = 0.01 s  ClockTime = 0 s

Courant Number mean: 0.00823345 max: 0.0416581
Time = 100.03

diagonal:  Solving for rho, Initial residual = 0, Final residual = 0, No Iterations 0
DILUPBiCGStab:  Solving for Ux, Initial residual = 0.00840611, Final residual = 5.55437e-08, No Iterations 1
DILUPBiCGStab:  Solving for Uy, Initial residual = 0.00565071, Final residual = 6.33424e-08, No Iterations 1
DILUPBiCGStab:  Solving for h, Initial residual = 0.00316106, Final residual = 2.46041e-08, No Iterations 1
DICPCG:  Solving for p_rgh, Initial residual = 0.145748, Final residual = 0.000981719, No Iterations 22
diagonal:  Solving for rho, Initial residual = 0, Final residual = 0, No Iterations 0
time step continuity errors : sum local = 1.77959e-07, global = -9.03197e-11, cumulative = -2.81522e-07
DICPCG:  Solving for p_rgh, Initial residual = 0.00140079, Final residual = 5.46851e-09, No Iterations 35
diagonal:  Solving for rho, Initial residual = 0, Final residual = 0, No Iterations 0
time step continuity errors : sum local = 1.72146e-09, global = -1.58091e-09, cumulative = -2.83102e-07
DILUPBiCGStab:  Solving for epsilon, Initial residual = 0.000159406, Final residual = 1.94489e-09, No Iterations 1
DILUPBiCGStab:  Solving for k, Initial residual = 0.000163763, Final residual = 3.31913e-09, No Iterations 1
ExecutionTime = 0.01 s  ClockTime = 0 s

Courant Number mean: 0.00819457 max: 0.0411561
Time = 100.04

diagonal:  Solving for rho, Initial residual = 0, Final residual = 0, No Iterations 0
DILUPBiCGStab:  Solving for Ux, Initial residual = 0.00577043, Final residual = 5.16108e-08, No Iterations 1
DILUPBiCGStab:  Solving for Uy, Initial residual = 0.00513899, Final residual = 6.47012e-08, No Iterations 1
DILUPBiCGStab:  Solving for h, Initial residual = 0.00281061, Final residual = 2.15635e-08, No Iterations 1
DICPCG:  Solving for p_rgh, Initial residual = 0.0652705, Final residual = 0.000560939, No Iterations 22
diagonal:  Solving for rho, Initial residual = 0, Final residual = 0, No Iterations 0
time step continuity errors : sum local = 1.19569e-07, global = 4.55707e-10, cumulative = -2.82647e-07
DICPCG:  Solving for p_rgh, Initial residual = 0.00078052, Final residual = 5.46492e-09, No Iterations 33
diagonal:  Solving for rho, Initial residual = 0, Final residual = 0, No Iterations 0
time step continuity errors : sum local = 8.81891e-10, global = -8.57558e-10, cumulative = -2.83504e-07
DILUPBiCGStab:  Solving for epsilon, Initial residual = 0.000144865, Final residual = 1.73688e-09, No Iterations 1
DILUPBiCGStab:  Solving for k, Initial residual = 0.000149704, Final residual = 2.86284e-09, No Iterations 1
ExecutionTime = 0.01 s  ClockTime = 0 s

Courant Number mean: 0.00815281 max: 0.0407523
Time = 100.05

diagonal:  Solving for rho, Initial residual = 0, Final residual = 0, No Iterations 0
DILUPBiCGStab:  Solving for Ux, Initial residual = 0.0115479, Final residual = 7.98911e-08, No Iterations 1
DILUPBiCGStab:  Solving for Uy, Initial residual = 0.00478611, Final residual = 5.22765e-08, No Iterations 1
DILUPBiCGStab:  Solving for h, Initial residual = 0.00148192, Final residual = 1.24826e-08, No Iterations 1
DICPCG:  Solving for p_rgh, Initial residual = 0.00968055, Final residual = 9.00233e-05, No Iterations 22
diagonal:  Solving for rho, Initial residual = 0, Final residual = 0, No Iterations 0
time step continuity errors : sum local = 2.10685e-08, global = 1.60153e-10, cumulative = -2.83344e-07
DICPCG:  Solving for p_rgh, Initial residual = 0.000143236, Final residual = 4.70484e-09, No Iterations 31
diagonal:  Solving for rho, Initial residual = 0, Final residual = 0, No Iterations 0
time step continuity errors : sum local = 6.30897e-11, global = 4.59742e-11, cumulative = -2.83298e-07
DILUPBiCGStab:  Solving for epsilon, Initial residual = 0.000134248, Final residual = 1.55622e-09, No Iterations 1
DILUPBiCGStab:  Solving for k, Initial residual = 0.000142852, Final residual = 2.46993e-09, No Iterations 1
ExecutionTime = 0.01 s  ClockTime = 0 s

Courant Number mean: 0.00811759 max: 0.0403341
Time = 100.06

diagonal:  Solving for rho, Initial residual = 0, Final residual = 0, No Iterations 0
DILUPBiCGStab:  Solving for Ux, Initial residual = 0.011277, Final residual = 7.63652e-08, No Iterations 1
DILUPBiCGStab:  Solving for Uy, Initial residual = 0.00477801, Final residual = 5.16472e-08, No Iterations 1
DILUPBiCGStab:  Solving for h, Initial residual = 0.000362141, Final residual = 4.37854e-09, No Iterations 1
DICPCG:  Solving for p_rgh, Initial residual = 0.0342017, Final residual = 0.000192951, No Iterations 21
diagonal:  Solving for rho, Initial residual = 0, Final residual = 0, No Iterations 0
time step continuity errors : sum local = 4.4055e-08, global = 6.01345e-10, cumulative = -2.82697e-07
DICPCG:  Solving for p_rgh, Initial residual = 0.000399319, Final residual = 9.69141e-09, No Iterations 32
diagonal:  Solving for rho, Initial residual = 0, Final residual = 0, No Iterations 0
time step continuity errors : sum local = 8.95321e-10, global = 8.95321e-10, cumulative = -2.81802e-07
DILUPBiCGStab:  Solving for epsilon, Initial residual = 0.000129616, Final residual = 1.47623e-09, No Iterations 1
DILUPBiCGStab:  Solving for k, Initial residual = 0.000142863, Final residual = 2.25907e-09, No Iterations 1
ExecutionTime = 0.02 s  ClockTime = 0 s

Courant Number mean: 0.00808957 max: 0.0399409
Time = 100.07

diagonal:  Solving for rho, Initial residual = 0, Final residual = 0, No Iterations 0
DILUPBiCGStab:  Solving for Ux, Initial residual = 0.00765257, Final residual = 5.63706e-08, No Iterations 1
DILUPBiCGStab:  Solving for Uy, Initial residual = 0.00415604, Final residual = 4.72631e-08, No Iterations 1
DILUPBiCGStab:  Solving for h, Initial residual = 0.00168313, Final residual = 1.3486e-08, No Iterations 1
DICPCG:  Solving for p_rgh, Initial residual = 0.0617929, Final residual = 0.000538031, No Iterations 20
diagonal:  Solving for rho, Initial residual = 0, Final residual = 0, No Iterations 0
time step continuity errors : sum local = 1.09515e-07, global = 6.58623e-10, cumulative = -2.81143e-07
DICPCG:  Solving for p_rgh, Initial residual = 0.00101166, Final residual = 7.01711e-09, No Iterations 33
diagonal:  Solving for rho, Initial residual = 0, Final residual = 0, No Iterations 0
time step continuity errors : sum local = 1.54007e-09, global = 1.54007e-09, cumulative = -2.79603e-07
DILUPBiCGStab:  Solving for epsilon, Initial residual = 0.000129762, Final residual = 1.42937e-09, No Iterations 1
DILUPBiCGStab:  Solving for k, Initial residual = 0.0001462, Final residual = 2.25364e-09, No Iterations 1
ExecutionTime = 0.02 s  ClockTime = 0 s

Courant Number mean: 0.00807183 max: 0.0396565
Time = 100.08

diagonal:  Solving for rho, Initial residual = 0, Final residual = 0, No Iterations 0
DILUPBiCGStab:  Solving for Ux, Initial residual = 0.00387764, Final residual = 3.3455e-08, No Iterations 1
DILUPBiCGStab:  Solving for Uy, Initial residual = 0.00287245, Final residual = 3.37636e-08, No Iterations 1
DILUPBiCGStab:  Solving for h, Initial residual = 0.00272196, Final residual = 2.35286e-08, No Iterations 1
DICPCG:  Solving for p_rgh, Initial residual = 0.0968723, Final residual = 0.000659923, No Iterations 20
diagonal:  Solving for rho, Initial residual = 0, Final residual = 0, No Iterations 0
time step continuity errors : sum local = 1.08646e-07, global = 1.46013e-09, cumulative = -2.78143e-07
DICPCG:  Solving for p_rgh, Initial residual = 0.00155504, Final residual = 5.45984e-09, No Iterations 35
diagonal:  Solving for rho, Initial residual = 0, Final residual = 0, No Iterations 0
time step continuity errors : sum local = 1.87566e-09, global = 1.87566e-09, cumulative = -2.76267e-07
DILUPBiCGStab:  Solving for epsilon, Initial residual = 0.000129222, Final residual = 1.40356e-09, No Iterations 1
DILUPBiCGStab:  Solving for k, Initial residual = 0.000147618, Final residual = 2.25612e-09, No Iterations 1
ExecutionTime = 0.02 s  ClockTime = 0 s

Courant Number mean: 0.00806451 max: 0.0395427
Time = 100.09

diagonal:  Solving for rho, Initial residual = 0, Final residual = 0, No Iterations 0
DILUPBiCGStab:  Solving for Ux, Initial residual = 0.00116281, Final residual = 1.24342e-08, No Iterations 1
DILUPBiCGStab:  Solving for Uy, Initial residual = 0.00122536, Final residual = 1.44805e-08, No Iterations 1
DILUPBiCGStab:  Solving for h, Initial residual = 0.00327678, Final residual = 2.95743e-08, No Iterations 1
DICPCG:  Solving for p_rgh, Initial residual = 0.141455, Final residual = 0.00115772, No Iterations 20
diagonal:  Solving for rho, Initial residual = 0, Final residual = 0, No Iterations 0
time step continuity errors : sum local = 1.35212e-07, global = 5.04649e-10, cumulative = -2.75762e-07
DICPCG:  Solving for p_rgh, Initial residual = 0.00178346, Final residual = 9.37779e-09, No Iterations 34
diagonal:  Solving for rho, Initial residual = 0, Final residual = 0, No Iterations 0
time step continuity errors : sum local = 1.87173e-09, global = 1.87173e-09, cumulative = -2.73891e-07
DILUPBiCGStab:  Solving for epsilon, Initial residual = 0.000127623, Final residual = 1.3989e-09, No Iterations 1
DILUPBiCGStab:  Solving for k, Initial residual = 0.000145138, Final residual = 2.23141e-09, No Iterations 1
ExecutionTime = 0.02 s  ClockTime = 0 s

Courant Number mean: 0.00806719 max: 0.0396056
Time = 100.1

diagonal:  Solving for rho, Initial residual = 0, Final residual = 0, No Iterations 0
DILUPBiCGStab:  Solving for Ux, Initial residual = 0.00142492, Final residual = 1.36945e-08, No Iterations 1
DILUPBiCGStab:  Solving for Uy, Initial residual = 0.000711364, Final residual = 8.85258e-09, No Iterations 1
DILUPBiCGStab:  Solving for h, Initial residual = 0.00327792, Final residual = 3.0043e-08, No Iterations 1
DICPCG:  Solving for p_rgh, Initial residual = 0.129754, Final residual = 0.00125901, No Iterations 20
diagonal:  Solving for rho, Initial residual = 0, Final residual = 0, No Iterations 0
time step continuity errors : sum local = 1.38691e-07, global = -1.14436e-10, cumulative = -2.74005e-07
DICPCG:  Solving for p_rgh, Initial residual = 0.00119727, Final residual = 7.18195e-09, No Iterations 33
diagonal:  Solving for rho, Initial residual = 0, Final residual = 0, No Iterations 0
time step continuity errors : sum local = 1.57202e-09, global = 1.57202e-09, cumulative = -2.72433e-07
DILUPBiCGStab:  Solving for epsilon, Initial residual = 0.000125664, Final residual = 1.4108e-09, No Iterations 1
DILUPBiCGStab:  Solving for k, Initial residual = 0.000141267, Final residual = 2.18912e-09, No Iterations 1
ExecutionTime = 0.03 s  ClockTime = 0 s

Courant Number mean: 0.00807819 max: 0.0398047
Time = 100.11

diagonal:  Solving for rho, Initial residual = 0, Final residual = 0, No Iterations 0
DILUPBiCGStab:  Solving for Ux, Initial residual = 0.00328885, Final residual = 2.67305e-08, No Iterations 1
DILUPBiCGStab:  Solving for Uy, Initial residual = 0.00192074, Final residual = 2.30135e-08, No Iterations 1
DILUPBiCGStab:  Solving for h, Initial residual = 0.00279548, Final residual = 2.54531e-08, No Iterations 1
DICPCG:  Solving for p_rgh, Initial residual = 0.0676872, Final residual = 0.000627062, No Iterations 16
diagonal:  Solving for rho, Initial residual = 0, Final residual = 0, No Iterations 0
time step continuity errors : sum local = 9.32074e-08, global = 3.43993e-09, cumulative = -2.68993e-07
DICPCG:  Solving for p_rgh, Initial residual = 0.000674463, Final residual = 4.77986e-09, No Iterations 33
diagonal:  Solving for rho, Initial residual = 0, Final residual = 0, No Iterations 0
time step continuity errors : sum local = 1.06709e-09, global = 1.06709e-09, cumulative = -2.67926e-07
DILUPBiCGStab:  Solving for epsilon, Initial residual = 0.000127521, Final residual = 1.43838e-09, No Iterations 1
DILUPBiCGStab:  Solving for k, Initial residual = 0.000139659, Final residual = 2.25335e-09, No Iterations 1
ExecutionTime = 0.03 s  ClockTime = 0 s

Courant Number mean: 0.00809452 max: 0.0400808
Time = 100.12

diagonal:  Solving for rho, Initial residual = 0, Final residual = 0, No Iterations 0
DILUPBiCGStab:  Solving for Ux, Initial residual = 0.00475145, Final residual = 3.66421e-08, No Iterations 1
DILUPBiCGStab:  Solving for Uy, Initial residual = 0.00268251, Final residual = 3.19184e-08, No Iterations 1
DILUPBiCGStab:  Solving for h, Initial residual = 0.00198085, Final residual = 1.77255e-08, No Iterations 1
DICPCG:  Solving for p_rgh, Initial residual = 0.0280049, Final residual = 0.000277673, No Iterations 21
diagonal:  Solving for rho, Initial residual = 0, Final residual = 0, No Iterations 0
time step continuity errors : sum local = 4.80124e-08, global = -1.11542e-10, cumulative = -2.68038e-07
DICPCG:  Solving for p_rgh, Initial residual = 0.000312784, Final residual = 6.34362e-09, No Iterations 31
diagonal:  Solving for rho, Initial residual = 0, Final residual = 0, No Iterations 0
time step continuity errors : sum local = 4.64185e-10, global = 4.64185e-10, cumulative = -2.67573e-07
DILUPBiCGStab:  Solving for epsilon, Initial residual = 0.000131855, Final residual = 1.52383e-09, No Iterations 1
DILUPBiCGStab:  Solving for k, Initial residual = 0.000140375, Final residual = 2.42821e-09, No Iterations 1
ExecutionTime = 0.03 s  ClockTime = 0 s

Courant Number mean: 0.00811438 max: 0.0403775
Time = 100.13

diagonal:  Solving for rho, Initial residual = 0, Final residual = 0, No Iterations 0
DILUPBiCGStab:  Solving for Ux, Initial residual = 0.00542233, Final residual = 4.06419e-08, No Iterations 1
DILUPBiCGStab:  Solving for Uy, Initial residual = 0.0030038, Final residual = 3.53811e-08, No Iterations 1
DILUPBiCGStab:  Solving for h, Initial residual = 0.00101679, Final residual = 1.0344e-08, No Iterations 1
DICPCG:  Solving for p_rgh, Initial residual = 0.0113077, Final residual = 8.53709e-05, No Iterations 22
diagonal:  Solving for rho, Initial residual = 0, Final residual = 0, No Iterations 0
time step continuity errors : sum local = 1.55878e-08, global = -1.75759e-10, cumulative = -2.67749e-07
DICPCG:  Solving for p_rgh, Initial residual = 0.00015311, Final residual = 5.0025e-09, No Iterations 31
diagonal:  Solving for rho, Initial residual = 0, Final residual = 0, No Iterations 0
time step continuity errors : sum local = 1.32614e-10, global = -1.31907e-10, cumulative = -2.67881e-07
DILUPBiCGStab:  Solving for epsilon, Initial residual = 0.000137491, Final residual = 1.62228e-09, No Iterations 1
DILUPBiCGStab:  Solving for k, Initial residual = 0.000143308, Final residual = 2.64103e-09, No Iterations 1
ExecutionTime = 0.03 s  ClockTime = 0 s

Courant Number mean: 0.00813514 max: 0.0406474
Time = 100.14

diagonal:  Solving for rho, Initial residual = 0, Final residual = 0, No Iterations 0
DILUPBiCGStab:  Solving for Ux, Initial residual = 0.00512079, Final residual = 3.80054e-08, No Iterations 1
DILUPBiCGStab:  Solving for Uy, Initial residual = 0.00282468, Final residual = 3.36152e-08, No Iterations 1
DILUPBiCGStab:  Solving for h, Initial residual = 0.000232864, Final residual = 3.62234e-09, No Iterations 1
DICPCG:  Solving for p_rgh, Initial residual = 0.0314107, Final residual = 0.000289951, No Iterations 18
diagonal:  Solving for rho, Initial residual = 0, Final residual = 0, No Iterations 0
time step continuity errors : sum local = 5.12989e-08, global = -8.97063e-10, cumulative = -2.68778e-07
DICPCG:  Solving for p_rgh, Initial residual = 0.000481446, Final residual = 6.74936e-09, No Iterations 32
diagonal:  Solving for rho, Initial residual = 0, Final residual = 0, No Iterations 0
time step continuity errors : sum local = 6.32496e-10, global = -6.32496e-10, cumulative = -2.69411e-07
DILUPBiCGStab:  Solving for epsilon, Initial residual = 0.000142717, Final residual = 1.70087e-09, No Iterations 1
DILUPBiCGStab:  Solving for k, Initial residual = 0.000148423, Final residual = 2.80824e-09, No Iterations 1
ExecutionTime = 0.03 s  ClockTime = 0 s

Courant Number mean: 0.00815157 max: 0.0408535
Time = 100.15

diagonal:  Solving for rho, Initial residual = 0, Final residual = 0, No Iterations 0
DILUPBiCGStab:  Solving for Ux, Initial residual = 0.00399071, Final residual = 2.99384e-08, No Iterations 1
DILUPBiCGStab:  Solving for Uy, Initial residual = 0.00224076, Final residual = 2.71375e-08, No Iterations 1
DILUPBiCGStab:  Solving for h, Initial residual = 0.00103892, Final residual = 1.16102e-08, No Iterations 1
DICPCG:  Solving for p_rgh, Initial residual = 0.0507005, Final residual = 0.000330507, No Iterations 20
diagonal:  Solving for rho, Initial residual = 0, Final residual = 0, No Iterations 0
time step continuity errors : sum local = 5.30873e-08, global = -5.65348e-10, cumulative = -2.69976e-07
DICPCG:  Solving for p_rgh, Initial residual = 0.000666224, Final residual = 7.76299e-09, No Iterations 33
diagonal:  Solving for rho, Initial residual = 0, Final residual = 0, No Iterations 0
time step continuity errors : sum local = 9.7333e-10, global = -9.7333e-10, cumulative = -2.70949e-07
DILUPBiCGStab:  Solving for epsilon, Initial residual = 0.000145612, Final residual = 1.74177e-09, No Iterations 1
DILUPBiCGStab:  Solving for k, Initial residual = 0.000152721, Final residual = 2.90648e-09, No Iterations 1
ExecutionTime = 0.04 s  ClockTime = 0 s

Courant Number mean: 0.00816123 max: 0.0409711
Time = 100.16

diagonal:  Solving for rho, Initial residual = 0, Final residual = 0, No Iterations 0
DILUPBiCGStab:  Solving for Ux, Initial residual = 0.00238327, Final residual = 1.88639e-08, No Iterations 1
DILUPBiCGStab:  Solving for Uy, Initial residual = 0.00139034, Final residual = 1.73372e-08, No Iterations 1
DILUPBiCGStab:  Solving for h, Initial residual = 0.0015921, Final residual = 1.57543e-08, No Iterations 1
DICPCG:  Solving for p_rgh, Initial residual = 0.0710393, Final residual = 0.000545298, No Iterations 20
diagonal:  Solving for rho, Initial residual = 0, Final residual = 0, No Iterations 0
time step continuity errors : sum local = 7.41899e-08, global = -8.08384e-10, cumulative = -2.71758e-07
DICPCG:  Solving for p_rgh, Initial residual = 0.00106107, Final residual = 8.48504e-09, No Iterations 33
diagonal:  Solving for rho, Initial residual = 0, Final residual = 0, No Iterations 0
time step continuity errors : sum local = 1.12214e-09, global = -1.12214e-09, cumulative = -2.7288e-07
DILUPBiCGStab:  Solving for epsilon, Initial residual = 0.000145635, Final residual = 1.74258e-09, No Iterations 1
DILUPBiCGStab:  Solving for k, Initial residual = 0.000153557, Final residual = 2.91842e-09, No Iterations 1
ExecutionTime = 0.04 s  ClockTime = 0 s

Courant Number mean: 0.0081631 max: 0.0409906
Time = 100.17

diagonal:  Solving for rho, Initial residual = 0, Final residual = 0, No Iterations 0
DILUPBiCGStab:  Solving for Ux, Initial residual = 0.000659797, Final residual = 7.36591e-09, No Iterations 1
DILUPBiCGStab:  Solving for Uy, Initial residual = 0.000463563, Final residual = 5.35769e-09, No Iterations 1
DILUPBiCGStab:  Solving for h, Initial residual = 0.00183125, Final residual = 1.73686e-08, No Iterations 1
DICPCG:  Solving for p_rgh, Initial residual = 0.088767, Final residual = 0.000745517, No Iterations 20
diagonal:  Solving for rho, Initial residual = 0, Final residual = 0, No Iterations 0
time step continuity errors : sum local = 8.0144e-08, global = -1.02348e-09, cumulative = -2.73903e-07
DICPCG:  Solving for p_rgh, Initial residual = 0.00119958, Final residual = 6.90454e-09, No Iterations 33
diagonal:  Solving for rho, Initial residual = 0, Final residual = 0, No Iterations 0
time step continuity errors : sum local = 1.07982e-09, global = -1.07982e-09, cumulative = -2.74983e-07
DILUPBiCGStab:  Solving for epsilon, Initial residual = 0.000142984, Final residual = 1.70478e-09, No Iterations 1
DILUPBiCGStab:  Solving for k, Initial residual = 0.000151207, Final residual = 2.8511e-09, No Iterations 1
ExecutionTime = 0.04 s  ClockTime = 0 s

Courant Number mean: 0.00815775 max: 0.0409188
Time = 100.18

diagonal:  Solving for rho, Initial residual = 0, Final residual = 0, No Iterations 0
DILUPBiCGStab:  Solving for Ux, Initial residual = 0.00119804, Final residual = 1.16002e-08, No Iterations 1
DILUPBiCGStab:  Solving for Uy, Initial residual = 0.000584442, Final residual = 7.19307e-09, No Iterations 1
DILUPBiCGStab:  Solving for h, Initial residual = 0.0017583, Final residual = 1.67274e-08, No Iterations 1
DICPCG:  Solving for p_rgh, Initial residual = 0.0857503, Final residual = 0.000564358, No Iterations 16
diagonal:  Solving for rho, Initial residual = 0, Final residual = 0, No Iterations 0
time step continuity errors : sum local = 5.26505e-08, global = -4.21149e-10, cumulative = -2.75404e-07
DICPCG:  Solving for p_rgh, Initial residual = 0.00066684, Final residual = 5.62807e-09, No Iterations 33
diagonal:  Solving for rho, Initial residual = 0, Final residual = 0, No Iterations 0
time step continuity errors : sum local = 8.77199e-10, global = -8.77199e-10, cumulative = -2.76281e-07
DILUPBiCGStab:  Solving for epsilon, Initial residual = 0.000138312, Final residual = 1.63835e-09, No Iterations 1
DILUPBiCGStab:  Solving for k, Initial residual = 0.000146477, Final residual = 2.72324e-09, No Iterations 1
ExecutionTime = 0.04 s  ClockTime = 0 s

Courant Number mean: 0.00814681 max: 0.0407762
Time = 100.19

diagonal:  Solving for rho, Initial residual = 0, Final residual = 0, No Iterations 0
DILUPBiCGStab:  Solving for Ux, Initial residual = 0.00238863, Final residual = 1.92805e-08, No Iterations 1
DILUPBiCGStab:  Solving for Uy, Initial residual = 0.00120835, Final residual = 1.41094e-08, No Iterations 1
DILUPBiCGStab:  Solving for h, Initial residual = 0.00142369, Final residual = 1.419e-08, No Iterations 1
DICPCG:  Solving for p_rgh, Initial residual = 0.0476999, Final residual = 0.000432599, No Iterations 20
diagonal:  Solving for rho, Initial residual = 0, Final residual = 0, No Iterations 0
time step continuity errors : sum local = 4.93762e-08, global = 6.19227e-10, cumulative = -2.75662e-07
DICPCG:  Solving for p_rgh, Initial residual = 0.000483088, Final residual = 6.84116e-09, No Iterations 32
diagonal:  Solving for rho, Initial residual = 0, Final residual = 0, No Iterations 0
time step continuity errors : sum local = 5.65624e-10, global = -5.65624e-10, cumulative = -2.76228e-07
DILUPBiCGStab:  Solving for epsilon, Initial residual = 0.00013257, Final residual = 1.55801e-09, No Iterations 1
DILUPBiCGStab:  Solving for k, Initial residual = 0.000140737, Final residual = 2.56183e-09, No Iterations 1
ExecutionTime = 0.05 s  ClockTime = 0 s

Courant Number mean: 0.00813273 max: 0.0405917
Time = 100.2

diagonal:  Solving for rho, Initial residual = 0, Final residual = 0, No Iterations 0
DILUPBiCGStab:  Solving for Ux, Initial residual = 0.00310164, Final residual = 2.42105e-08, No Iterations 1
DILUPBiCGStab:  Solving for Uy, Initial residual = 0.00166013, Final residual = 1.92056e-08, No Iterations 1
DILUPBiCGStab:  Solving for h, Initial residual = 0.000912928, Final residual = 1.02185e-08, No Iterations 1
DICPCG:  Solving for p_rgh, Initial residual = 0.018977, Final residual = 0.000116917, No Iterations 22
diagonal:  Solving for rho, Initial residual = 0, Final residual = 0, No Iterations 0
time step continuity errors : sum local = 1.4798e-08, global = 1.12808e-10, cumulative = -2.76115e-07
DICPCG:  Solving for p_rgh, Initial residual = 0.000157956, Final residual = 7.99817e-09, No Iterations 29
diagonal:  Solving for rho, Initial residual = 0, Final residual = 0, No Iterations 0
time step continuity errors : sum local = 2.07386e-10, global = -2.07386e-10, cumulative = -2.76322e-07
DILUPBiCGStab:  Solving for epsilon, Initial residual = 0.000126981, Final residual = 1.4763e-09, No Iterations 1
DILUPBiCGStab:  Solving for k, Initial residual = 0.000135426, Final residual = 2.3954e-09, No Iterations 1
ExecutionTime = 0.05 s  ClockTime = 0 s

Courant Number mean: 0.00811795 max: 0.0403971
Time = 100.21

diagonal:  Solving for rho, Initial residual = 0, Final residual = 0, No Iterations 0
DILUPBiCGStab:  Solving for Ux, Initial residual = 0.0032882, Final residual = 2.56672e-08, No Iterations 1
DILUPBiCGStab:  Solving for Uy, Initial residual = 0.00180559, Final residual = 2.08751e-08, No Iterations 1
DILUPBiCGStab:  Solving for h, Initial residual = 0.000327174, Final residual = 4.62663e-09, No Iterations 1
DICPCG:  Solving for p_rgh, Initial residual = 0.013343, Final residual = 7.37318e-05, No Iterations 22
diagonal:  Solving for rho, Initial residual = 0, Final residual = 0, No Iterations 0
time step continuity errors : sum local = 9.61756e-09, global = -3.10843e-11, cumulative = -2.76354e-07
DICPCG:  Solving for p_rgh, Initial residual = 0.000148831, Final residual = 5.37749e-09, No Iterations 31
diagonal:  Solving for rho, Initial residual = 0, Final residual = 0, No Iterations 0
time step continuity errors : sum local = 1.37126e-10, global = 1.36759e-10, cumulative = -2.76217e-07
DILUPBiCGStab:  Solving for epsilon, Initial residual = 0.000122287, Final residual = 1.40745e-09, No Iterations 1
DILUPBiCGStab:  Solving for k, Initial residual = 0.000131524, Final residual = 2.2594e-09, No Iterations 1
ExecutionTime = 0.05 s  ClockTime = 0 s

Courant Number mean: 0.00810483 max: 0.0402211
Time = 100.22

diagonal:  Solving for rho, Initial residual = 0, Final residual = 0, No Iterations 0
DILUPBiCGStab:  Solving for Ux, Initial residual = 0.00297064, Final residual = 2.36681e-08, No Iterations 1
DILUPBiCGStab:  Solving for Uy, Initial residual = 0.00165995, Final residual = 1.92068e-08, No Iterations 1
DILUPBiCGStab:  Solving for h, Initial residual = 0.000495912, Final residual = 5.83738e-09, No Iterations 1
DICPCG:  Solving for p_rgh, Initial residual = 0.0291201, Final residual = 0.000191228, No Iterations 20
diagonal:  Solving for rho, Initial residual = 0, Final residual = 0, No Iterations 0
time step continuity errors : sum local = 2.40339e-08, global = -1.1968e-10, cumulative = -2.76336e-07
DICPCG:  Solving for p_rgh, Initial residual = 0.000358419, Final residual = 8.34788e-09, No Iterations 31
diagonal:  Solving for rho, Initial residual = 0, Final residual = 0, No Iterations 0
time step continuity errors : sum local = 4.15834e-10, global = 4.15834e-10, cumulative = -2.75921e-07
DILUPBiCGStab:  Solving for epsilon, Initial residual = 0.000118953, Final residual = 1.35818e-09, No Iterations 1
DILUPBiCGStab:  Solving for k, Initial residual = 0.000129664, Final residual = 2.17801e-09, No Iterations 1
ExecutionTime = 0.05 s  ClockTime = 0 s

Courant Number mean: 0.00809521 max: 0.0400859
Time = 100.23

diagonal:  Solving for rho, Initial residual = 0, Final residual = 0, No Iterations 0
DILUPBiCGStab:  Solving for Ux, Initial residual = 0.00226957, Final residual = 1.89174e-08, No Iterations 1
DILUPBiCGStab:  Solving for Uy, Initial residual = 0.00128163, Final residual = 1.48095e-08, No Iterations 1
DILUPBiCGStab:  Solving for h, Initial residual = 0.000936075, Final residual = 8.99229e-09, No Iterations 1
DICPCG:  Solving for p_rgh, Initial residual = 0.0437641, Final residual = 0.000299971, No Iterations 20
diagonal:  Solving for rho, Initial residual = 0, Final residual = 0, No Iterations 0
time step continuity errors : sum local = 3.44621e-08, global = 3.30573e-10, cumulative = -2.7559e-07
DICPCG:  Solving for p_rgh, Initial residual = 0.000562188, Final residual = 6.99187e-09, No Iterations 33
diagonal:  Solving for rho, Initial residual = 0, Final residual = 0, No Iterations 0
time step continuity errors : sum local = 5.95236e-10, global = 5.95236e-10, cumulative = -2.74995e-07
DILUPBiCGStab:  Solving for epsilon, Initial residual = 0.000116853, Final residual = 1.3306e-09, No Iterations 1
DILUPBiCGStab:  Solving for k, Initial residual = 0.000129033, Final residual = 2.13797e-09, No Iterations 1
ExecutionTime = 0.06 s  ClockTime = 0 s

Courant Number mean: 0.00808954 max: 0.0400044
Time = 100.24

diagonal:  Solving for rho, Initial residual = 0, Final residual = 0, No Iterations 0
DILUPBiCGStab:  Solving for Ux, Initial residual = 0.00133571, Final residual = 1.25116e-08, No Iterations 1
DILUPBiCGStab:  Solving for Uy, Initial residual = 0.000758019, Final residual = 8.81168e-09, No Iterations 1
DILUPBiCGStab:  Solving for h, Initial residual = 0.00122347, Final residual = 1.12487e-08, No Iterations 1
DICPCG:  Solving for p_rgh, Initial residual = 0.0571363, Final residual = 0.000446029, No Iterations 20
diagonal:  Solving for rho, Initial residual = 0, Final residual = 0, No Iterations 0
time step continuity errors : sum local = 4.44503e-08, global = 4.58444e-10, cumulative = -2.74536e-07
DICPCG:  Solving for p_rgh, Initial residual = 0.00076066, Final residual = 7.70058e-09, No Iterations 33
diagonal:  Solving for rho, Initial residual = 0, Final residual = 0, No Iterations 0
time step continuity errors : sum local = 6.60172e-10, global = 6.60172e-10, cumulative = -2.73876e-07
DILUPBiCGStab:  Solving for epsilon, Initial residual = 0.000115954, Final residual = 1.32595e-09, No Iterations 1
DILUPBiCGStab:  Solving for k, Initial residual = 0.000128964, Final residual = 2.12903e-09, No Iterations 1
ExecutionTime = 0.06 s  ClockTime = 0 s

Courant Number mean: 0.00808793 max: 0.0399799
Time = 100.25

diagonal:  Solving for rho, Initial residual = 0, Final residual = 0, No Iterations 0
DILUPBiCGStab:  Solving for Ux, Initial residual = 0.000351064, Final residual = 4.25312e-09, No Iterations 1
DILUPBiCGStab:  Solving for Uy, Initial residual = 0.000243726, Final residual = 2.58661e-09, No Iterations 1
DILUPBiCGStab:  Solving for h, Initial residual = 0.00132828, Final residual = 1.21794e-08, No Iterations 1
DICPCG:  Solving for p_rgh, Initial residual = 0.0627212, Final residual = 0.000545517, No Iterations 20
diagonal:  Solving for rho, Initial residual = 0, Final residual = 0, No Iterations 0
time step continuity errors : sum local = 4.73571e-08, global = 4.99714e-10, cumulative = -2.73376e-07
DICPCG:  Solving for p_rgh, Initial residual = 0.000633056, Final residual = 4.2918e-09, No Iterations 33
diagonal:  Solving for rho, Initial residual = 0, Final residual = 0, No Iterations 0
time step continuity errors : sum local = 6.15101e-10, global = 6.15101e-10, cumulative = -2.72761e-07
DILUPBiCGStab:  Solving for epsilon, Initial residual = 0.000116319, Final residual = 1.33742e-09, No Iterations 1
DILUPBiCGStab:  Solving for k, Initial residual = 0.000129107, Final residual = 2.14244e-09, No Iterations 1
ExecutionTime = 0.06 s  ClockTime = 0 s

Courant Number mean: 0.00808997 max: 0.0400063
Time = 100.26

diagonal:  Solving for rho, Initial residual = 0, Final residual = 0, No Iterations 0
DILUPBiCGStab:  Solving for Ux, Initial residual = 0.000850992, Final residual = 8.64605e-09, No Iterations 1
DILUPBiCGStab:  Solving for Uy, Initial residual = 0.000451783, Final residual = 5.40874e-09, No Iterations 1
DILUPBiCGStab:  Solving for h, Initial residual = 0.0012563, Final residual = 1.16251e-08, No Iterations 1
DICPCG:  Solving for p_rgh, Initial residual = 0.0433452, Final residual = 0.000328999, No Iterations 16
diagonal:  Solving for rho, Initial residual = 0, Final residual = 0, No Iterations 0
time step continuity errors : sum local = 3.34003e-08, global = 8.81582e-10, cumulative = -2.7188e-07
DICPCG:  Solving for p_rgh, Initial residual = 0.000395976, Final residual = 8.07961e-09, No Iterations 32
diagonal:  Solving for rho, Initial residual = 0, Final residual = 0, No Iterations 0
time step continuity errors : sum local = 4.80916e-10, global = 4.80916e-10, cumulative = -2.71399e-07
DILUPBiCGStab:  Solving for epsilon, Initial residual = 0.000117526, Final residual = 1.36176e-09, No Iterations 1
DILUPBiCGStab:  Solving for k, Initial residual = 0.000129816, Final residual = 2.17827e-09, No Iterations 1
ExecutionTime = 0.06 s  ClockTime = 0 s

Courant Number mean: 0.00809474 max: 0.0400704
Time = 100.27

diagonal:  Solving for rho, Initial residual = 0, Final residual = 0, No Iterations 0
DILUPBiCGStab:  Solving for Ux, Initial residual = 0.00151267, Final residual = 1.28515e-08, No Iterations 1
DILUPBiCGStab:  Solving for Uy, Initial residual = 0.000788206, Final residual = 9.52534e-09, No Iterations 1
DILUPBiCGStab:  Solving for h, Initial residual = 0.0010408, Final residual = 9.92185e-09, No Iterations 1
DICPCG:  Solving for p_rgh, Initial residual = 0.0247557, Final residual = 0.000233608, No Iterations 20
diagonal:  Solving for rho, Initial residual = 0, Final residual = 0, No Iterations 0
time step continuity errors : sum local = 2.64216e-08, global = -4.3242e-10, cumulative = -2.71831e-07
DICPCG:  Solving for p_rgh, Initial residual = 0.000274553, Final residual = 8.89655e-09, No Iterations 31
diagonal:  Solving for rho, Initial residual = 0, Final residual = 0, No Iterations 0
time step continuity errors : sum local = 2.89394e-10, global = 2.89394e-10, cumulative = -2.71542e-07
DILUPBiCGStab:  Solving for epsilon, Initial residual = 0.000119168, Final residual = 1.39306e-09, No Iterations 1
DILUPBiCGStab:  Solving for k, Initial residual = 0.000131255, Final residual = 2.22976e-09, No Iterations 1
ExecutionTime = 0.06 s  ClockTime = 0 s

Courant Number mean: 0.00810102 max: 0.0401548
Time = 100.28

diagonal:  Solving for rho, Initial residual = 0, Final residual = 0, No Iterations 0
DILUPBiCGStab:  Solving for Ux, Initial residual = 0.00187334, Final residual = 1.51117e-08, No Iterations 1
DILUPBiCGStab:  Solving for Uy, Initial residual = 0.000980523, Final residual = 1.18162e-08, No Iterations 1
DILUPBiCGStab:  Solving for h, Initial residual = 0.000736283, Final residual = 7.69414e-09, No Iterations 1
DICPCG:  Solving for p_rgh, Initial residual = 0.00823885, Final residual = 6.18385e-05, No Iterations 22
diagonal:  Solving for rho, Initial residual = 0, Final residual = 0, No Iterations 0
time step continuity errors : sum local = 7.41733e-09, global = -1.36277e-10, cumulative = -2.71678e-07
DICPCG:  Solving for p_rgh, Initial residual = 8.21503e-05, Final residual = 5.69425e-09, No Iterations 30
diagonal:  Solving for rho, Initial residual = 0, Final residual = 0, No Iterations 0
time step continuity errors : sum local = 7.7444e-11, global = 7.7444e-11, cumulative = -2.71601e-07
DILUPBiCGStab:  Solving for epsilon, Initial residual = 0.000121143, Final residual = 1.42626e-09, No Iterations 1
DILUPBiCGStab:  Solving for k, Initial residual = 0.000133327, Final residual = 2.29673e-09, No Iterations 1
ExecutionTime = 0.07 s  ClockTime = 0 s

Courant Number mean: 0.00810783 max: 0.0402412
Time = 100.29

diagonal:  Solving for rho, Initial residual = 0, Final residual = 0, No Iterations 0
DILUPBiCGStab:  Solving for Ux, Initial residual = 0.0019146, Final residual = 1.52853e-08, No Iterations 1
DILUPBiCGStab:  Solving for Uy, Initial residual = 0.00102514, Final residual = 1.23118e-08, No Iterations 1
DILUPBiCGStab:  Solving for h, Initial residual = 0.000402339, Final residual = 5.14664e-09, No Iterations 1
DICPCG:  Solving for p_rgh, Initial residual = 0.0102878, Final residual = 7.33888e-05, No Iterations 21
diagonal:  Solving for rho, Initial residual = 0, Final residual = 0, No Iterations 0
time step continuity errors : sum local = 8.87289e-09, global = -2.53041e-11, cumulative = -2.71626e-07
DICPCG:  Solving for p_rgh, Initial residual = 0.000127686, Final residual = 5.01511e-09, No Iterations 30
diagonal:  Solving for rho, Initial residual = 0, Final residual = 0, No Iterations 0
time step continuity errors : sum local = 1.1988e-10, global = -1.19781e-10, cumulative = -2.71746e-07
DILUPBiCGStab:  Solving for epsilon, Initial residual = 0.000122947, Final residual = 1.4549e-09, No Iterations 1
DILUPBiCGStab:  Solving for k, Initial residual = 0.000135625, Final residual = 2.35671e-09, No Iterations 1
ExecutionTime = 0.07 s  ClockTime = 0 s

Courant Number mean: 0.00811383 max: 0.0403131
Time = 100.3

diagonal:  Solving for rho, Initial residual = 0, Final residual = 0, No Iterations 0
DILUPBiCGStab:  Solving for Ux, Initial residual = 0.00167025, Final residual = 1.35456e-08, No Iterations 1
DILUPBiCGStab:  Solving for Uy, Initial residual = 0.000905773, Final residual = 1.09657e-08, No Iterations 1
DILUPBiCGStab:  Solving for h, Initial residual = 0.000202485, Final residual = 3.24907e-09, No Iterations 1
DICPCG:  Solving for p_rgh, Initial residual = 0.0196337, Final residual = 0.000130792, No Iterations 20
diagonal:  Solving for rho, Initial residual = 0, Final residual = 0, No Iterations 0
time step continuity errors : sum local = 1.53666e-08, global = 3.00981e-11, cumulative = -2.71716e-07
DICPCG:  Solving for p_rgh, Initial residual = 0.000230929, Final residual = 7.55048e-09, No Iterations 30
diagonal:  Solving for rho, Initial residual = 0, Final residual = 0, No Iterations 0
time step continuity errors : sum local = 2.73742e-10, global = -2.73742e-10, cumulative = -2.71989e-07
DILUPBiCGStab:  Solving for epsilon, Initial residual = 0.000124514, Final residual = 1.47328e-09, No Iterations 1
DILUPBiCGStab:  Solving for k, Initial residual = 0.000137392, Final residual = 2.39831e-09, No Iterations 1
ExecutionTime = 0.07 s  ClockTime = 0 s

Courant Number mean: 0.00811791 max: 0.0403584
Time = 100.31

diagonal:  Solving for rho, Initial residual = 0, Final residual = 0, No Iterations 0
DILUPBiCGStab:  Solving for Ux, Initial residual = 0.00121421, Final residual = 1.05095e-08, No Iterations 1
DILUPBiCGStab:  Solving for Uy, Initial residual = 0.000662453, Final residual = 8.09517e-09, No Iterations 1
DILUPBiCGStab:  Solving for h, Initial residual = 0.000439747, Final residual = 5.46755e-09, No Iterations 1
DICPCG:  Solving for p_rgh, Initial residual = 0.0282342, Final residual = 0.000196914, No Iterations 20
diagonal:  Solving for rho, Initial residual = 0, Final residual = 0, No Iterations 0
time step continuity errors : sum local = 2.17893e-08, global = -2.67581e-10, cumulative = -2.72257e-07
DICPCG:  Solving for p_rgh, Initial residual = 0.000342644, Final residual = 7.18502e-09, No Iterations 32
diagonal:  Solving for rho, Initial residual = 0, Final residual = 0, No Iterations 0
time step continuity errors : sum local = 3.66264e-10, global = -3.66264e-10, cumulative = -2.72623e-07
DILUPBiCGStab:  Solving for epsilon, Initial residual = 0.000125138, Final residual = 1.47909e-09, No Iterations 1
DILUPBiCGStab:  Solving for k, Initial residual = 0.000138102, Final residual = 2.41316e-09, No Iterations 1
ExecutionTime = 0.07 s  ClockTime = 0 s

Courant Number mean: 0.00811948 max: 0.0403706
Time = 100.32

diagonal:  Solving for rho, Initial residual = 0, Final residual = 0, No Iterations 0
DILUPBiCGStab:  Solving for Ux, Initial residual = 0.00064684, Final residual = 6.7355e-09, No Iterations 1
DILUPBiCGStab:  Solving for Uy, Initial residual = 0.000376164, Final residual = 4.38799e-09, No Iterations 1
DILUPBiCGStab:  Solving for h, Initial residual = 0.000588994, Final residual = 6.82528e-09, No Iterations 1
DICPCG:  Solving for p_rgh, Initial residual = 0.0337305, Final residual = 0.000275136, No Iterations 20
diagonal:  Solving for rho, Initial residual = 0, Final residual = 0, No Iterations 0
time step continuity errors : sum local = 2.7861e-08, global = -3.55667e-10, cumulative = -2.72979e-07
DICPCG:  Solving for p_rgh, Initial residual = 0.000430533, Final residual = 7.9404e-09, No Iterations 32
diagonal:  Solving for rho, Initial residual = 0, Final residual = 0, No Iterations 0
time step continuity errors : sum local = 3.90929e-10, global = -3.90929e-10, cumulative = -2.7337e-07
DILUPBiCGStab:  Solving for epsilon, Initial residual = 0.000124713, Final residual = 1.47768e-09, No Iterations 1
DILUPBiCGStab:  Solving for k, Initial residual = 0.000137711, Final residual = 2.39944e-09, No Iterations 1
ExecutionTime = 0.08 s  ClockTime = 0 s

Courant Number mean: 0.00811844 max: 0.040349
Time = 100.33

diagonal:  Solving for rho, Initial residual = 0, Final residual = 0, No Iterations 0
DILUPBiCGStab:  Solving for Ux, Initial residual = 0.000210569, Final residual = 2.98491e-09, No Iterations 1
DILUPBiCGStab:  Solving for Uy, Initial residual = 0.000187696, Final residual = 2.04968e-09, No Iterations 1
DILUPBiCGStab:  Solving for h, Initial residual = 0.000627093, Final residual = 7.11593e-09, No Iterations 1
DICPCG:  Solving for p_rgh, Initial residual = 0.0346969, Final residual = 0.000290525, No Iterations 20
diagonal:  Solving for rho, Initial residual = 0, Final residual = 0, No Iterations 0
time step continuity errors : sum local = 2.65388e-08, global = -4.08995e-10, cumulative = -2.73779e-07
DICPCG:  Solving for p_rgh, Initial residual = 0.000414574, Final residual = 5.7997e-09, No Iterations 32
diagonal:  Solving for rho, Initial residual = 0, Final residual = 0, No Iterations 0
time step continuity errors : sum local = 3.52564e-10, global = -3.52564e-10, cumulative = -2.74131e-07
DILUPBiCGStab:  Solving for epsilon, Initial residual = 0.000123383, Final residual = 1.46439e-09, No Iterations 1
DILUPBiCGStab:  Solving for k, Initial residual = 0.000136381, Final residual = 2.36605e-09, No Iterations 1
ExecutionTime = 0.08 s  ClockTime = 0 s

Courant Number mean: 0.00811513 max: 0.0402983
Time = 100.34

diagonal:  Solving for rho, Initial residual = 0, Final residual = 0, No Iterations 0
DILUPBiCGStab:  Solving for Ux, Initial residual = 0.000691454, Final residual = 7.30501e-09, No Iterations 1
DILUPBiCGStab:  Solving for Uy, Initial residual = 0.000331524, Final residual = 4.17221e-09, No Iterations 1
DILUPBiCGStab:  Solving for h, Initial residual = 0.000562153, Final residual = 6.49329e-09, No Iterations 1
DICPCG:  Solving for p_rgh, Initial residual = 0.0289534, Final residual = 0.000190622, No Iterations 16
diagonal:  Solving for rho, Initial residual = 0, Final residual = 0, No Iterations 0
time step continuity errors : sum local = 1.6336e-08, global = 9.51429e-11, cumulative = -2.74036e-07
DICPCG:  Solving for p_rgh, Initial residual = 0.000248184, Final residual = 8.79866e-09, No Iterations 30
diagonal:  Solving for rho, Initial residual = 0, Final residual = 0, No Iterations 0
time step continuity errors : sum local = 2.65139e-10, global = -2.65139e-10, cumulative = -2.74301e-07
DILUPBiCGStab:  Solving for epsilon, Initial residual = 0.000121419, Final residual = 1.44208e-09, No Iterations 1
DILUPBiCGStab:  Solving for k, Initial residual = 0.000134419, Final residual = 2.3186e-09, No Iterations 1
ExecutionTime = 0.08 s  ClockTime = 0 s

Courant Number mean: 0.0081102 max: 0.0402268
Time = 100.35

diagonal:  Solving for rho, Initial residual = 0, Final residual = 0, No Iterations 0
DILUPBiCGStab:  Solving for Ux, Initial residual = 0.00104447, Final residual = 9.7732e-09, No Iterations 1
DILUPBiCGStab:  Solving for Uy, Initial residual = 0.000514518, Final residual = 6.23206e-09, No Iterations 1
DILUPBiCGStab:  Solving for h, Initial residual = 0.000417268, Final residual = 5.14399e-09, No Iterations 1
DICPCG:  Solving for p_rgh, Initial residual = 0.0164875, Final residual = 0.000131047, No Iterations 21
diagonal:  Solving for rho, Initial residual = 0, Final residual = 0, No Iterations 0
time step continuity errors : sum local = 1.19762e-08, global = 8.88802e-11, cumulative = -2.74213e-07
DICPCG:  Solving for p_rgh, Initial residual = 0.00015418, Final residual = 8.66258e-09, No Iterations 30
diagonal:  Solving for rho, Initial residual = 0, Final residual = 0, No Iterations 0
time step continuity errors : sum local = 1.48212e-10, global = -1.48212e-10, cumulative = -2.74361e-07
DILUPBiCGStab:  Solving for epsilon, Initial residual = 0.000119168, Final residual = 1.41726e-09, No Iterations 1
DILUPBiCGStab:  Solving for k, Initial residual = 0.000132249, Final residual = 2.26519e-09, No Iterations 1
ExecutionTime = 0.08 s  ClockTime = 0 s

Courant Number mean: 0.00810453 max: 0.0401452
Time = 100.36

diagonal:  Solving for rho, Initial residual = 0, Final residual = 0, No Iterations 0
DILUPBiCGStab:  Solving for Ux, Initial residual = 0.0012193, Final residual = 1.08621e-08, No Iterations 1
DILUPBiCGStab:  Solving for Uy, Initial residual = 0.000628802, Final residual = 7.49711e-09, No Iterations 1
DILUPBiCGStab:  Solving for h, Initial residual = 0.000225389, Final residual = 3.35244e-09, No Iterations 1
DICPCG:  Solving for p_rgh, Initial residual = 0.00470302, Final residual = 4.07858e-05, No Iterations 22
diagonal:  Solving for rho, Initial residual = 0, Final residual = 0, No Iterations 0
time step continuity errors : sum local = 3.87127e-09, global = -1.71204e-11, cumulative = -2.74378e-07
DICPCG:  Solving for p_rgh, Initial residual = 5.77555e-05, Final residual = 9.13506e-09, No Iterations 29
diagonal:  Solving for rho, Initial residual = 0, Final residual = 0, No Iterations 0
time step continuity errors : sum local = 2.35874e-11, global = -2.35874e-11, cumulative = -2.74402e-07
DILUPBiCGStab:  Solving for epsilon, Initial residual = 0.000116948, Final residual = 1.39385e-09, No Iterations 1
DILUPBiCGStab:  Solving for k, Initial residual = 0.00013066, Final residual = 2.21952e-09, No Iterations 1
ExecutionTime = 0.09 s  ClockTime = 0 s

Courant Number mean: 0.00809891 max: 0.0400642
Time = 100.37

diagonal:  Solving for rho, Initial residual = 0, Final residual = 0, No Iterations 0
DILUPBiCGStab:  Solving for Ux, Initial residual = 0.00120962, Final residual = 1.07819e-08, No Iterations 1
DILUPBiCGStab:  Solving for Uy, Initial residual = 0.000637229, Final residual = 7.5672e-09, No Iterations 1
DILUPBiCGStab:  Solving for h, Initial residual = 0.000239859, Final residual = 3.54467e-09, No Iterations 1
DICPCG:  Solving for p_rgh, Initial residual = 0.00969394, Final residual = 8.35794e-05, No Iterations 19
diagonal:  Solving for rho, Initial residual = 0, Final residual = 0, No Iterations 0
time step continuity errors : sum local = 7.94214e-09, global = -1.13404e-10, cumulative = -2.74515e-07
DICPCG:  Solving for p_rgh, Initial residual = 0.000131205, Final residual = 5.11692e-09, No Iterations 31
diagonal:  Solving for rho, Initial residual = 0, Final residual = 0, No Iterations 0
time step continuity errors : sum local = 8.86697e-11, global = 8.86228e-11, cumulative = -2.74426e-07
DILUPBiCGStab:  Solving for epsilon, Initial residual = 0.00011501, Final residual = 1.37503e-09, No Iterations 1
DILUPBiCGStab:  Solving for k, Initial residual = 0.000129376, Final residual = 2.18114e-09, No Iterations 1
ExecutionTime = 0.09 s  ClockTime = 0 s

Courant Number mean: 0.00809408 max: 0.0399929
Time = 100.38

diagonal:  Solving for rho, Initial residual = 0, Final residual = 0, No Iterations 0
DILUPBiCGStab:  Solving for Ux, Initial residual = 0.00103996, Final residual = 9.66922e-09, No Iterations 1
DILUPBiCGStab:  Solving for Uy, Initial residual = 0.000551735, Final residual = 6.54822e-09, No Iterations 1
DILUPBiCGStab:  Solving for h, Initial residual = 0.0004137, Final residual = 4.91833e-09, No Iterations 1
DICPCG:  Solving for p_rgh, Initial residual = 0.0161565, Final residual = 0.000108142, No Iterations 20
diagonal:  Solving for rho, Initial residual = 0, Final residual = 0, No Iterations 0
time step continuity errors : sum local = 9.99405e-09, global = -8.56239e-11, cumulative = -2.74512e-07
DICPCG:  Solving for p_rgh, Initial residual = 0.00018996, Final residual = 5.44019e-09, No Iterations 31
diagonal:  Solving for rho, Initial residual = 0, Final residual = 0, No Iterations 0
time step continuity errors : sum local = 1.72786e-10, global = 1.72786e-10, cumulative = -2.74339e-07
DILUPBiCGStab:  Solving for epsilon, Initial residual = 0.000113642, Final residual = 1.36366e-09, No Iterations 1
DILUPBiCGStab:  Solving for k, Initial residual = 0.000128603, Final residual = 2.15794e-09, No Iterations 1
ExecutionTime = 0.09 s  ClockTime = 0 s

Courant Number mean: 0.0080906 max: 0.039938
Time = 100.39

diagonal:  Solving for rho, Initial residual = 0, Final residual = 0, No Iterations 0
DILUPBiCGStab:  Solving for Ux, Initial residual = 0.000757786, Final residual = 7.66209e-09, No Iterations 1
DILUPBiCGStab:  Solving for Uy, Initial residual = 0.000397923, Final residual = 4.77206e-09, No Iterations 1
DILUPBiCGStab:  Solving for h, Initial residual = 0.000545954, Final residual = 5.91961e-09, No Iterations 1
DICPCG:  Solving for p_rgh, Initial residual = 0.0213932, Final residual = 0.000154912, No Iterations 20
diagonal:  Solving for rho, Initial residual = 0, Final residual = 0, No Iterations 0
time step continuity errors : sum local = 1.36172e-08, global = 1.11067e-10, cumulative = -2.74228e-07
DICPCG:  Solving for p_rgh, Initial residual = 0.000245662, Final residual = 5.69595e-09, No Iterations 32
diagonal:  Solving for rho, Initial residual = 0, Final residual = 0, No Iterations 0
time step continuity errors : sum local = 2.19512e-10, global = 2.19512e-10, cumulative = -2.74009e-07
DILUPBiCGStab:  Solving for epsilon, Initial residual = 0.000113, Final residual = 1.35924e-09, No Iterations 1
DILUPBiCGStab:  Solving for k, Initial residual = 0.000128139, Final residual = 2.14543e-09, No Iterations 1
ExecutionTime = 0.09 s  ClockTime = 0 s

Courant Number mean: 0.00808852 max: 0.0399026
Time = 100.4

diagonal:  Solving for rho, Initial residual = 0, Final residual = 0, No Iterations 0
DILUPBiCGStab:  Solving for Ux, Initial residual = 0.000424448, Final residual = 4.86214e-09, No Iterations 1
DILUPBiCGStab:  Solving for Uy, Initial residual = 0.000225417, Final residual = 2.84358e-09, No Iterations 1
DILUPBiCGStab:  Solving for h, Initial residual = 0.000619748, Final residual = 6.49327e-09, No Iterations 1
DICPCG:  Solving for p_rgh, Initial residual = 0.0233131, Final residual = 0.000187791, No Iterations 20
diagonal:  Solving for rho, Initial residual = 0, Final residual = 0, No Iterations 0
time step continuity errors : sum local = 1.60242e-08, global = 1.38822e-10, cumulative = -2.7387e-07
DICPCG:  Solving for p_rgh, Initial residual = 0.000254447, Final residual = 4.86231e-09, No Iterations 32
diagonal:  Solving for rho, Initial residual = 0, Final residual = 0, No Iterations 0
time step continuity errors : sum local = 2.264e-10, global = 2.264e-10, cumulative = -2.73643e-07
DILUPBiCGStab:  Solving for epsilon, Initial residual = 0.000112807, Final residual = 1.36147e-09, No Iterations 1
DILUPBiCGStab:  Solving for k, Initial residual = 0.000127971, Final residual = 2.14346e-09, No Iterations 1
ExecutionTime = 0.09 s  ClockTime = 0 s

Courant Number mean: 0.00808781 max: 0.0398866
Time = 100.41

diagonal:  Solving for rho, Initial residual = 0, Final residual = 0, No Iterations 0
DILUPBiCGStab:  Solving for Ux, Initial residual = 0.000228239, Final residual = 2.82131e-09, No Iterations 1
DILUPBiCGStab:  Solving for Uy, Initial residual = 0.000181284, Final residual = 1.82923e-09, No Iterations 1
DILUPBiCGStab:  Solving for h, Initial residual = 0.000630931, Final residual = 6.58681e-09, No Iterations 1
DICPCG:  Solving for p_rgh, Initial residual = 0.0197717, Final residual = 0.000190099, No Iterations 18
diagonal:  Solving for rho, Initial residual = 0, Final residual = 0, No Iterations 0
time step continuity errors : sum local = 1.72045e-08, global = 6.43412e-10, cumulative = -2.73e-07
DICPCG:  Solving for p_rgh, Initial residual = 0.000223454, Final residual = 5.73087e-09, No Iterations 32
diagonal:  Solving for rho, Initial residual = 0, Final residual = 0, No Iterations 0
time step continuity errors : sum local = 1.97435e-10, global = 1.97435e-10, cumulative = -2.72802e-07
DILUPBiCGStab:  Solving for epsilon, Initial residual = 0.000112982, Final residual = 1.36914e-09, No Iterations 1
DILUPBiCGStab:  Solving for k, Initial residual = 0.000128045, Final residual = 2.15048e-09, No Iterations 1
ExecutionTime = 0.09 s  ClockTime = 0 s

Courant Number mean: 0.00808826 max: 0.0398866
Time = 100.42

diagonal:  Solving for rho, Initial residual = 0, Final residual = 0, No Iterations 0
DILUPBiCGStab:  Solving for Ux, Initial residual = 0.000451478, Final residual = 4.92711e-09, No Iterations 1
DILUPBiCGStab:  Solving for Uy, Initial residual = 0.000258943, Final residual = 2.75217e-09, No Iterations 1
DILUPBiCGStab:  Solving for h, Initial residual = 0.000584819, Final residual = 6.23747e-09, No Iterations 1
DICPCG:  Solving for p_rgh, Initial residual = 0.0140403, Final residual = 9.40537e-05, No Iterations 16
diagonal:  Solving for rho, Initial residual = 0, Final residual = 0, No Iterations 0
time step continuity errors : sum local = 8.99385e-09, global = -1.99406e-10, cumulative = -2.73002e-07
DICPCG:  Solving for p_rgh, Initial residual = 0.000126081, Final residual = 9.48741e-09, No Iterations 30
diagonal:  Solving for rho, Initial residual = 0, Final residual = 0, No Iterations 0
time step continuity errors : sum local = 1.41688e-10, global = 1.41688e-10, cumulative = -2.7286e-07
DILUPBiCGStab:  Solving for epsilon, Initial residual = 0.000113446, Final residual = 1.38089e-09, No Iterations 1
DILUPBiCGStab:  Solving for k, Initial residual = 0.000128361, Final residual = 2.16524e-09, No Iterations 1
ExecutionTime = 0.1 s  ClockTime = 0 s

Courant Number mean: 0.00808957 max: 0.0398975
Time = 100.43

diagonal:  Solving for rho, Initial residual = 0, Final residual = 0, No Iterations 0
DILUPBiCGStab:  Solving for Ux, Initial residual = 0.000630839, Final residual = 6.26355e-09, No Iterations 1
DILUPBiCGStab:  Solving for Uy, Initial residual = 0.000340814, Final residual = 3.84345e-09, No Iterations 1
DILUPBiCGStab:  Solving for h, Initial residual = 0.000496478, Final residual = 5.55846e-09, No Iterations 1
DICPCG:  Solving for p_rgh, Initial residual = 0.00754396, Final residual = 6.19687e-05, No Iterations 21
diagonal:  Solving for rho, Initial residual = 0, Final residual = 0, No Iterations 0
time step continuity errors : sum local = 6.14416e-09, global = -1.31107e-10, cumulative = -2.72991e-07
DICPCG:  Solving for p_rgh, Initial residual = 7.42334e-05, Final residual = 7.04749e-09, No Iterations 29
diagonal:  Solving for rho, Initial residual = 0, Final residual = 0, No Iterations 0
time step continuity errors : sum local = 7.10115e-11, global = 7.10115e-11, cumulative = -2.7292e-07
DILUPBiCGStab:  Solving for epsilon, Initial residual = 0.000114047, Final residual = 1.39458e-09, No Iterations 1
DILUPBiCGStab:  Solving for k, Initial residual = 0.000128835, Final residual = 2.18435e-09, No Iterations 1
ExecutionTime = 0.1 s  ClockTime = 0 s

Courant Number mean: 0.00809132 max: 0.039913
Time = 100.44

diagonal:  Solving for rho, Initial residual = 0, Final residual = 0, No Iterations 0
DILUPBiCGStab:  Solving for Ux, Initial residual = 0.000710399, Final residual = 6.73689e-09, No Iterations 1
DILUPBiCGStab:  Solving for Uy, Initial residual = 0.000376037, Final residual = 4.31009e-09, No Iterations 1
DILUPBiCGStab:  Solving for h, Initial residual = 0.000385086, Final residual = 4.69804e-09, No Iterations 1
DICPCG:  Solving for p_rgh, Initial residual = 0.00181237, Final residual = 1.0707e-05, No Iterations 23
diagonal:  Solving for rho, Initial residual = 0, Final residual = 0, No Iterations 0
time step continuity errors : sum local = 1.07112e-09, global = -7.79507e-11, cumulative = -2.72998e-07
DICPCG:  Solving for p_rgh, Initial residual = 2.15995e-05, Final residual = 9.73727e-09, No Iterations 28
diagonal:  Solving for rho, Initial residual = 0, Final residual = 0, No Iterations 0
time step continuity errors : sum local = 3.37042e-12, global = -1.73608e-12, cumulative = -2.73e-07
DILUPBiCGStab:  Solving for epsilon, Initial residual = 0.00011457, Final residual = 1.40721e-09, No Iterations 1
DILUPBiCGStab:  Solving for k, Initial residual = 0.000129261, Final residual = 2.20143e-09, No Iterations 1
ExecutionTime = 0.1 s  ClockTime = 0 s

Courant Number mean: 0.008093 max: 0.0399269
Time = 100.45

diagonal:  Solving for rho, Initial residual = 0, Final residual = 0, No Iterations 0
DILUPBiCGStab:  Solving for Ux, Initial residual = 0.000682933, Final residual = 6.49909e-09, No Iterations 1
DILUPBiCGStab:  Solving for Uy, Initial residual = 0.000363557, Final residual = 4.15416e-09, No Iterations 1
DILUPBiCGStab:  Solving for h, Initial residual = 0.000272341, Final residual = 3.81197e-09, No Iterations 1
DICPCG:  Solving for p_rgh, Initial residual = 0.00611616, Final residual = 4.07831e-05, No Iterations 18
diagonal:  Solving for rho, Initial residual = 0, Final residual = 0, No Iterations 0
time step continuity errors : sum local = 4.11176e-09, global = -1.08563e-10, cumulative = -2.73109e-07
DICPCG:  Solving for p_rgh, Initial residual = 6.89403e-05, Final residual = 8.73423e-09, No Iterations 29
diagonal:  Solving for rho, Initial residual = 0, Final residual = 0, No Iterations 0
time step continuity errors : sum local = 6.51373e-11, global = -6.51348e-11, cumulative = -2.73174e-07
DILUPBiCGStab:  Solving for epsilon, Initial residual = 0.000114884, Final residual = 1.41647e-09, No Iterations 1
DILUPBiCGStab:  Solving for k, Initial residual = 0.000129511, Final residual = 2.21453e-09, No Iterations 1
ExecutionTime = 0.1 s  ClockTime = 0 s

Courant Number mean: 0.0080942 max: 0.0399339
Time = 100.46

diagonal:  Solving for rho, Initial residual = 0, Final residual = 0, No Iterations 0
DILUPBiCGStab:  Solving for Ux, Initial residual = 0.000566572, Final residual = 5.6674e-09, No Iterations 1
DILUPBiCGStab:  Solving for Uy, Initial residual = 0.000311202, Final residual = 3.4688e-09, No Iterations 1
DILUPBiCGStab:  Solving for h, Initial residual = 0.000178824, Final residual = 3.06504e-09, No Iterations 1
DICPCG:  Solving for p_rgh, Initial residual = 0.00957945, Final residual = 6.37819e-05, No Iterations 20
diagonal:  Solving for rho, Initial residual = 0, Final residual = 0, No Iterations 0
time step continuity errors : sum local = 6.26823e-09, global = -1.38141e-10, cumulative = -2.73312e-07
DICPCG:  Solving for p_rgh, Initial residual = 0.000106156, Final residual = 8.83168e-09, No Iterations 30
diagonal:  Solving for rho, Initial residual = 0, Final residual = 0, No Iterations 0
time step continuity errors : sum local = 1.10577e-10, global = -1.10577e-10, cumulative = -2.73422e-07
DILUPBiCGStab:  Solving for epsilon, Initial residual = 0.000114864, Final residual = 1.42103e-09, No Iterations 1
DILUPBiCGStab:  Solving for k, Initial residual = 0.000129504, Final residual = 2.2201e-09, No Iterations 1
ExecutionTime = 0.1 s  ClockTime = 0 s

Courant Number mean: 0.00809464 max: 0.0399307
Time = 100.47

diagonal:  Solving for rho, Initial residual = 0, Final residual = 0, No Iterations 0
DILUPBiCGStab:  Solving for Ux, Initial residual = 0.000400118, Final residual = 4.34514e-09, No Iterations 1
DILUPBiCGStab:  Solving for Uy, Initial residual = 0.000234726, Final residual = 2.4656e-09, No Iterations 1
DILUPBiCGStab:  Solving for h, Initial residual = 0.000179298, Final residual = 2.93968e-09, No Iterations 1
DICPCG:  Solving for p_rgh, Initial residual = 0.0122207, Final residual = 9.185e-05, No Iterations 20
diagonal:  Solving for rho, Initial residual = 0, Final residual = 0, No Iterations 0
time step continuity errors : sum local = 8.80735e-09, global = -1.46627e-10, cumulative = -2.73569e-07
DICPCG:  Solving for p_rgh, Initial residual = 0.000141387, Final residual = 6.78997e-09, No Iterations 31
diagonal:  Solving for rho, Initial residual = 0, Final residual = 0, No Iterations 0
time step continuity errors : sum local = 1.33393e-10, global = -1.33393e-10, cumulative = -2.73702e-07
DILUPBiCGStab:  Solving for epsilon, Initial residual = 0.000114449, Final residual = 1.42195e-09, No Iterations 1
DILUPBiCGStab:  Solving for k, Initial residual = 0.000129155, Final residual = 2.21669e-09, No Iterations 1
ExecutionTime = 0.11 s  ClockTime = 0 s

Courant Number mean: 0.00809418 max: 0.0399157
Time = 100.48

diagonal:  Solving for rho, Initial residual = 0, Final residual = 0, No Iterations 0
DILUPBiCGStab:  Solving for Ux, Initial residual = 0.000226217, Final residual = 2.79449e-09, No Iterations 1
DILUPBiCGStab:  Solving for Uy, Initial residual = 0.000172126, Final residual = 1.76076e-09, No Iterations 1
DILUPBiCGStab:  Solving for h, Initial residual = 0.000202787, Final residual = 3.03105e-09, No Iterations 1
DICPCG:  Solving for p_rgh, Initial residual = 0.0129484, Final residual = 0.000109943, No Iterations 20
diagonal:  Solving for rho, Initial residual = 0, Final residual = 0, No Iterations 0
time step continuity errors : sum local = 1.01598e-08, global = -1.67908e-10, cumulative = -2.7387e-07
DICPCG:  Solving for p_rgh, Initial residual = 0.000154381, Final residual = 7.54463e-09, No Iterations 30
diagonal:  Solving for rho, Initial residual = 0, Final residual = 0, No Iterations 0
time step continuity errors : sum local = 1.32911e-10, global = -1.32911e-10, cumulative = -2.74003e-07
DILUPBiCGStab:  Solving for epsilon, Initial residual = 0.000113656, Final residual = 1.41871e-09, No Iterations 1
DILUPBiCGStab:  Solving for k, Initial residual = 0.0001285, Final residual = 2.20462e-09, No Iterations 1
ExecutionTime = 0.11 s  ClockTime = 0 s

Courant Number mean: 0.00809288 max: 0.0398896
Time = 100.49

diagonal:  Solving for rho, Initial residual = 0, Final residual = 0, No Iterations 0
DILUPBiCGStab:  Solving for Ux, Initial residual = 0.000234285, Final residual = 2.99537e-09, No Iterations 1
DILUPBiCGStab:  Solving for Uy, Initial residual = 0.0001636, Final residual = 1.94799e-09, No Iterations 1
DILUPBiCGStab:  Solving for h, Initial residual = 0.000201131, Final residual = 3.00368e-09, No Iterations 1
DICPCG:  Solving for p_rgh, Initial residual = 0.0117118, Final residual = 0.00011155, No Iterations 16
diagonal:  Solving for rho, Initial residual = 0, Final residual = 0, No Iterations 0
time step continuity errors : sum local = 9.91642e-09, global = -4.41877e-10, cumulative = -2.74445e-07
DICPCG:  Solving for p_rgh, Initial residual = 0.000144468, Final residual = 5.79117e-09, No Iterations 31
diagonal:  Solving for rho, Initial residual = 0, Final residual = 0, No Iterations 0
time step continuity errors : sum local = 1.12222e-10, global = -1.12222e-10, cumulative = -2.74557e-07
DILUPBiCGStab:  Solving for epsilon, Initial residual = 0.000112554, Final residual = 1.41154e-09, No Iterations 1
DILUPBiCGStab:  Solving for k, Initial residual = 0.000127658, Final residual = 2.18551e-09, No Iterations 1
ExecutionTime = 0.11 s  ClockTime = 0 s

Courant Number mean: 0.00809089 max: 0.0398545
Time = 100.5

diagonal:  Solving for rho, Initial residual = 0, Final residual = 0, No Iterations 0
DILUPBiCGStab:  Solving for Ux, Initial residual = 0.000382503, Final residual = 4.35239e-09, No Iterations 1
DILUPBiCGStab:  Solving for Uy, Initial residual = 0.00018913, Final residual = 2.46526e-09, No Iterations 1
DILUPBiCGStab:  Solving for h, Initial residual = 0.000176846, Final residual = 2.86124e-09, No Iterations 1
DICPCG:  Solving for p_rgh, Initial residual = 0.00878447, Final residual = 8.57845e-05, No Iterations 16
diagonal:  Solving for rho, Initial residual = 0, Final residual = 0, No Iterations 0
time step continuity errors : sum local = 7.39539e-09, global = 2.67088e-10, cumulative = -2.7429e-07
DICPCG:  Solving for p_rgh, Initial residual = 0.000106832, Final residual = 4.63625e-09, No Iterations 31
diagonal:  Solving for rho, Initial residual = 0, Final residual = 0, No Iterations 0
time step continuity errors : sum local = 7.70256e-11, global = -7.70256e-11, cumulative = -2.74367e-07
DILUPBiCGStab:  Solving for epsilon, Initial residual = 0.000111247, Final residual = 1.40233e-09, No Iterations 1
DILUPBiCGStab:  Solving for k, Initial residual = 0.000126631, Final residual = 2.16214e-09, No Iterations 1
ExecutionTime = 0.11 s  ClockTime = 1 s

Courant Number mean: 0.00808845 max: 0.0398137
Time = 100.51

diagonal:  Solving for rho, Initial residual = 0, Final residual = 0, No Iterations 0
DILUPBiCGStab:  Solving for Ux, Initial residual = 0.000478166, Final residual = 5.14341e-09, No Iterations 1
DILUPBiCGStab:  Solving for Uy, Initial residual = 0.000226912, Final residual = 2.95068e-09, No Iterations 1
DILUPBiCGStab:  Solving for h, Initial residual = 0.000168279, Final residual = 2.88848e-09, No Iterations 1
DICPCG:  Solving for p_rgh, Initial residual = 0.00472622, Final residual = 4.29231e-05, No Iterations 21
diagonal:  Solving for rho, Initial residual = 0, Final residual = 0, No Iterations 0
time step continuity errors : sum local = 3.65043e-09, global = -1.91939e-11, cumulative = -2.74386e-07
DICPCG:  Solving for p_rgh, Initial residual = 5.11986e-05, Final residual = 4.74522e-09, No Iterations 27
diagonal:  Solving for rho, Initial residual = 0, Final residual = 0, No Iterations 0
time step continuity errors : sum local = 3.45631e-11, global = -3.45631e-11, cumulative = -2.74421e-07
DILUPBiCGStab:  Solving for epsilon, Initial residual = 0.000109849, Final residual = 1.39237e-09, No Iterations 1
DILUPBiCGStab:  Solving for k, Initial residual = 0.000125531, Final residual = 2.13701e-09, No Iterations 1
ExecutionTime = 0.12 s  ClockTime = 1 s

Courant Number mean: 0.00808585 max: 0.0397709
Time = 100.52

diagonal:  Solving for rho, Initial residual = 0, Final residual = 0, No Iterations 0
DILUPBiCGStab:  Solving for Ux, Initial residual = 0.00051133, Final residual = 5.38331e-09, No Iterations 1
DILUPBiCGStab:  Solving for Uy, Initial residual = 0.00024867, Final residual = 3.18543e-09, No Iterations 1
DILUPBiCGStab:  Solving for h, Initial residual = 0.000221227, Final residual = 3.28765e-09, No Iterations 1
DICPCG:  Solving for p_rgh, Initial residual = 0.002187, Final residual = 1.54935e-05, No Iterations 22
diagonal:  Solving for rho, Initial residual = 0, Final residual = 0, No Iterations 0
time step continuity errors : sum local = 1.32942e-09, global = -4.90214e-11, cumulative = -2.7447e-07
DICPCG:  Solving for p_rgh, Initial residual = 2.71854e-05, Final residual = 8.79381e-09, No Iterations 28
diagonal:  Solving for rho, Initial residual = 0, Final residual = 0, No Iterations 0
time step continuity errors : sum local = 7.80143e-12, global = 7.68348e-12, cumulative = -2.74462e-07
DILUPBiCGStab:  Solving for epsilon, Initial residual = 0.000108473, Final residual = 1.38433e-09, No Iterations 1
DILUPBiCGStab:  Solving for k, Initial residual = 0.000124458, Final residual = 2.11235e-09, No Iterations 1
ExecutionTime = 0.12 s  ClockTime = 1 s

Courant Number mean: 0.00808339 max: 0.0397298
Time = 100.53

diagonal:  Solving for rho, Initial residual = 0, Final residual = 0, No Iterations 0
DILUPBiCGStab:  Solving for Ux, Initial residual = 0.000484198, Final residual = 5.14366e-09, No Iterations 1
DILUPBiCGStab:  Solving for Uy, Initial residual = 0.000238917, Final residual = 3.06214e-09, No Iterations 1
DILUPBiCGStab:  Solving for h, Initial residual = 0.000286468, Final residual = 3.77636e-09, No Iterations 1
DICPCG:  Solving for p_rgh, Initial residual = 0.00504161, Final residual = 3.8621e-05, No Iterations 18
diagonal:  Solving for rho, Initial residual = 0, Final residual = 0, No Iterations 0
time step continuity errors : sum local = 3.29691e-09, global = 1.14441e-11, cumulative = -2.74451e-07
DICPCG:  Solving for p_rgh, Initial residual = 6.02679e-05, Final residual = 9.51638e-09, No Iterations 29
diagonal:  Solving for rho, Initial residual = 0, Final residual = 0, No Iterations 0
time step continuity errors : sum local = 4.32695e-11, global = 4.32627e-11, cumulative = -2.74408e-07
DILUPBiCGStab:  Solving for epsilon, Initial residual = 0.000107202, Final residual = 1.37754e-09, No Iterations 1
DILUPBiCGStab:  Solving for k, Initial residual = 0.000123473, Final residual = 2.0943e-09, No Iterations 1
ExecutionTime = 0.12 s  ClockTime = 1 s

Courant Number mean: 0.00808126 max: 0.0396932
Time = 100.54

diagonal:  Solving for rho, Initial residual = 0, Final residual = 0, No Iterations 0
DILUPBiCGStab:  Solving for Ux, Initial residual = 0.00040844, Final residual = 4.4928e-09, No Iterations 1
DILUPBiCGStab:  Solving for Uy, Initial residual = 0.000203571, Final residual = 2.6363e-09, No Iterations 1
DILUPBiCGStab:  Solving for h, Initial residual = 0.000342359, Final residual = 4.19347e-09, No Iterations 1
DICPCG:  Solving for p_rgh, Initial residual = 0.00713255, Final residual = 5.17417e-05, No Iterations 20
diagonal:  Solving for rho, Initial residual = 0, Final residual = 0, No Iterations 0
time step continuity errors : sum local = 4.40199e-09, global = -4.21034e-11, cumulative = -2.7445e-07
DICPCG:  Solving for p_rgh, Initial residual = 7.82942e-05, Final residual = 7.22161e-09, No Iterations 30
diagonal:  Solving for rho, Initial residual = 0, Final residual = 0, No Iterations 0
time step continuity errors : sum local = 6.75363e-11, global = 6.75363e-11, cumulative = -2.74382e-07
DILUPBiCGStab:  Solving for epsilon, Initial residual = 0.000106294, Final residual = 1.37274e-09, No Iterations 1
DILUPBiCGStab:  Solving for k, Initial residual = 0.000122615, Final residual = 2.08306e-09, No Iterations 1
ExecutionTime = 0.12 s  ClockTime = 1 s

Courant Number mean: 0.00807961 max: 0.0396629
Time = 100.55

diagonal:  Solving for rho, Initial residual = 0, Final residual = 0, No Iterations 0
DILUPBiCGStab:  Solving for Ux, Initial residual = 0.000302613, Final residual = 3.52953e-09, No Iterations 1
DILUPBiCGStab:  Solving for Uy, Initial residual = 0.000167085, Final residual = 2.06052e-09, No Iterations 1
DILUPBiCGStab:  Solving for h, Initial residual = 0.000380769, Final residual = 4.47962e-09, No Iterations 1
DICPCG:  Solving for p_rgh, Initial residual = 0.00804697, Final residual = 6.10513e-05, No Iterations 20
diagonal:  Solving for rho, Initial residual = 0, Final residual = 0, No Iterations 0
time step continuity errors : sum local = 5.2927e-09, global = 1.43985e-11, cumulative = -2.74368e-07
DICPCG:  Solving for p_rgh, Initial residual = 8.85471e-05, Final residual = 8.10527e-09, No Iterations 30
diagonal:  Solving for rho, Initial residual = 0, Final residual = 0, No Iterations 0
time step continuity errors : sum local = 7.82471e-11, global = 7.82471e-11, cumulative = -2.7429e-07
DILUPBiCGStab:  Solving for epsilon, Initial residual = 0.000105652, Final residual = 1.37127e-09, No Iterations 1
DILUPBiCGStab:  Solving for k, Initial residual = 0.000121897, Final residual = 2.07596e-09, No Iterations 1
ExecutionTime = 0.13 s  ClockTime = 1 s

Courant Number mean: 0.00807848 max: 0.0396396
Time = 100.56

diagonal:  Solving for rho, Initial residual = 0, Final residual = 0, No Iterations 0
DILUPBiCGStab:  Solving for Ux, Initial residual = 0.000188719, Final residual = 2.42309e-09, No Iterations 1
DILUPBiCGStab:  Solving for Uy, Initial residual = 0.00015043, Final residual = 1.72394e-09, No Iterations 1
DILUPBiCGStab:  Solving for h, Initial residual = 0.000397973, Final residual = 4.60445e-09, No Iterations 1
DICPCG:  Solving for p_rgh, Initial residual = 0.00777259, Final residual = 6.21628e-05, No Iterations 20
diagonal:  Solving for rho, Initial residual = 0, Final residual = 0, No Iterations 0
time step continuity errors : sum local = 5.5181e-09, global = 2.02597e-11, cumulative = -2.74269e-07
DICPCG:  Solving for p_rgh, Initial residual = 8.55967e-05, Final residual = 7.33394e-09, No Iterations 30
diagonal:  Solving for rho, Initial residual = 0, Final residual = 0, No Iterations 0
time step continuity errors : sum local = 7.54568e-11, global = 7.54568e-11, cumulative = -2.74194e-07
DILUPBiCGStab:  Solving for epsilon, Initial residual = 0.000105182, Final residual = 1.37181e-09, No Iterations 1
DILUPBiCGStab:  Solving for k, Initial residual = 0.000121304, Final residual = 2.07283e-09, No Iterations 1
ExecutionTime = 0.13 s  ClockTime = 1 s

Courant Number mean: 0.00807783 max: 0.0396228
Time = 100.57

diagonal:  Solving for rho, Initial residual = 0, Final residual = 0, No Iterations 0
DILUPBiCGStab:  Solving for Ux, Initial residual = 0.000189981, Final residual = 2.33048e-09, No Iterations 1
DILUPBiCGStab:  Solving for Uy, Initial residual = 0.000152607, Final residual = 1.57324e-09, No Iterations 1
DILUPBiCGStab:  Solving for h, Initial residual = 0.000393856, Final residual = 4.56589e-09, No Iterations 1
DICPCG:  Solving for p_rgh, Initial residual = 0.00641697, Final residual = 5.41881e-05, No Iterations 17
diagonal:  Solving for rho, Initial residual = 0, Final residual = 0, No Iterations 0
time step continuity errors : sum local = 4.92052e-09, global = 1.77855e-10, cumulative = -2.74016e-07
DICPCG:  Solving for p_rgh, Initial residual = 6.98852e-05, Final residual = 6.26766e-09, No Iterations 30
diagonal:  Solving for rho, Initial residual = 0, Final residual = 0, No Iterations 0
time step continuity errors : sum local = 6.13061e-11, global = 6.13061e-11, cumulative = -2.73955e-07
DILUPBiCGStab:  Solving for epsilon, Initial residual = 0.000104803, Final residual = 1.37358e-09, No Iterations 1
DILUPBiCGStab:  Solving for k, Initial residual = 0.000121691, Final residual = 2.07479e-09, No Iterations 1
ExecutionTime = 0.13 s  ClockTime = 1 s

Courant Number mean: 0.00807757 max: 0.0396109
Time = 100.58

diagonal:  Solving for rho, Initial residual = 0, Final residual = 0, No Iterations 0
DILUPBiCGStab:  Solving for Ux, Initial residual = 0.000250235, Final residual = 2.83474e-09, No Iterations 1
DILUPBiCGStab:  Solving for Uy, Initial residual = 0.000168804, Final residual = 1.60716e-09, No Iterations 1
DILUPBiCGStab:  Solving for h, Initial residual = 0.000371735, Final residual = 4.38922e-09, No Iterations 1
DICPCG:  Solving for p_rgh, Initial residual = 0.00436647, Final residual = 4.16232e-05, No Iterations 16
diagonal:  Solving for rho, Initial residual = 0, Final residual = 0, No Iterations 0
time step continuity errors : sum local = 3.87954e-09, global = -2.22256e-10, cumulative = -2.74177e-07
DICPCG:  Solving for p_rgh, Initial residual = 5.01653e-05, Final residual = 5.15679e-09, No Iterations 30
diagonal:  Solving for rho, Initial residual = 0, Final residual = 0, No Iterations 0
time step continuity errors : sum local = 3.94487e-11, global = 3.94487e-11, cumulative = -2.74138e-07
DILUPBiCGStab:  Solving for epsilon, Initial residual = 0.000104484, Final residual = 1.37577e-09, No Iterations 1
DILUPBiCGStab:  Solving for k, Initial residual = 0.000122232, Final residual = 2.0801e-09, No Iterations 1
ExecutionTime = 0.13 s  ClockTime = 1 s

Courant Number mean: 0.00807754 max: 0.0396021
Time = 100.59

diagonal:  Solving for rho, Initial residual = 0, Final residual = 0, No Iterations 0
DILUPBiCGStab:  Solving for Ux, Initial residual = 0.000292024, Final residual = 3.18441e-09, No Iterations 1
DILUPBiCGStab:  Solving for Uy, Initial residual = 0.000182222, Final residual = 1.71436e-09, No Iterations 1
DILUPBiCGStab:  Solving for h, Initial residual = 0.000337424, Final residual = 4.12263e-09, No Iterations 1
DICPCG:  Solving for p_rgh, Initial residual = 0.00202652, Final residual = 1.83445e-05, No Iterations 21
diagonal:  Solving for rho, Initial residual = 0, Final residual = 0, No Iterations 0
[...]
DILUPBiCGStab:  Solving for Uy, Initial residual = 5.38149e-05, Final residual = 3.53127e-10, No Iterations 1
DILUPBiCGStab:  Solving for h, Initial residual = 0.000156321, Final residual = 1.37323e-09, No Iterations 1
DICPCG:  Solving for p_rgh, Initial residual = 3.67462e-05, Final residual = 3.25819e-07, No Iterations 18
diagonal:  Solving for rho, Initial residual = 0, Final residual = 0, No Iterations 0
time step continuity errors : sum local = 4.66451e-11, global = -3.73385e-11, cumulative = -4.1016e-07
DICPCG:  Solving for p_rgh, Initial residual = 6.10734e-07, Final residual = 8.25227e-09, No Iterations 22
diagonal:  Solving for rho, Initial residual = 0, Final residual = 0, No Iterations 0
time step continuity errors : sum local = 7.43638e-13, global = -5.14585e-15, cumulative = -4.1016e-07
DILUPBiCGStab:  Solving for epsilon, Initial residual = 9.20959e-06, Final residual = 6.74445e-11, No Iterations 1
DILUPBiCGStab:  Solving for k, Initial residual = 2.84416e-05, Final residual = 3.65652e-10, No Iterations 1
ExecutionTime = 7.14 s  ClockTime = 8 s

Courant Number mean: 0.00746579 max: 0.0356365
Time = 131.06

diagonal:  Solving for rho, Initial residual = 0, Final residual = 0, No Iterations 0
DILUPBiCGStab:  Solving for Ux, Initial residual = 3.03946e-05, Final residual = 2.08515e-10, No Iterations 1
DILUPBiCGStab:  Solving for Uy, Initial residual = 5.3791e-05, Final residual = 3.52929e-10, No Iterations 1
DILUPBiCGStab:  Solving for h, Initial residual = 0.000156308, Final residual = 1.37327e-09, No Iterations 1
DICPCG:  Solving for p_rgh, Initial residual = 3.67393e-05, Final residual = 3.25884e-07, No Iterations 18
diagonal:  Solving for rho, Initial residual = 0, Final residual = 0, No Iterations 0
time step continuity errors : sum local = 4.66385e-11, global = -3.73326e-11, cumulative = -4.10197e-07
DICPCG:  Solving for p_rgh, Initial residual = 6.10759e-07, Final residual = 8.24565e-09, No Iterations 22
diagonal:  Solving for rho, Initial residual = 0, Final residual = 0, No Iterations 0
time step continuity errors : sum local = 7.61177e-13, global = -7.19121e-17, cumulative = -4.10197e-07
DILUPBiCGStab:  Solving for epsilon, Initial residual = 9.20721e-06, Final residual = 6.74314e-11, No Iterations 1
DILUPBiCGStab:  Solving for k, Initial residual = 2.84369e-05, Final residual = 3.65646e-10, No Iterations 1
ExecutionTime = 7.15 s  ClockTime = 8 s

Courant Number mean: 0.00746559 max: 0.0356358
Time = 131.07

diagonal:  Solving for rho, Initial residual = 0, Final residual = 0, No Iterations 0
DILUPBiCGStab:  Solving for Ux, Initial residual = 3.03932e-05, Final residual = 2.08514e-10, No Iterations 1
DILUPBiCGStab:  Solving for Uy, Initial residual = 5.3767e-05, Final residual = 3.5273e-10, No Iterations 1
DILUPBiCGStab:  Solving for h, Initial residual = 0.000156295, Final residual = 1.37332e-09, No Iterations 1
DICPCG:  Solving for p_rgh, Initial residual = 3.67324e-05, Final residual = 3.2602e-07, No Iterations 18
diagonal:  Solving for rho, Initial residual = 0, Final residual = 0, No Iterations 0
time step continuity errors : sum local = 4.66455e-11, global = -3.73438e-11, cumulative = -4.10235e-07
DICPCG:  Solving for p_rgh, Initial residual = 6.10864e-07, Final residual = 8.25202e-09, No Iterations 22
diagonal:  Solving for rho, Initial residual = 0, Final residual = 0, No Iterations 0
time step continuity errors : sum local = 7.38293e-13, global = -6.66634e-16, cumulative = -4.10235e-07
DILUPBiCGStab:  Solving for epsilon, Initial residual = 9.20481e-06, Final residual = 6.7418e-11, No Iterations 1
DILUPBiCGStab:  Solving for k, Initial residual = 2.8432e-05, Final residual = 3.6564e-10, No Iterations 1
ExecutionTime = 7.15 s  ClockTime = 8 s

Courant Number mean: 0.00746538 max: 0.0356351
Time = 131.08

diagonal:  Solving for rho, Initial residual = 0, Final residual = 0, No Iterations 0
DILUPBiCGStab:  Solving for Ux, Initial residual = 3.03917e-05, Final residual = 2.08514e-10, No Iterations 1
DILUPBiCGStab:  Solving for Uy, Initial residual = 5.37429e-05, Final residual = 3.52532e-10, No Iterations 1
DILUPBiCGStab:  Solving for h, Initial residual = 0.000156282, Final residual = 1.37336e-09, No Iterations 1
DICPCG:  Solving for p_rgh, Initial residual = 3.67251e-05, Final residual = 3.26031e-07, No Iterations 18
diagonal:  Solving for rho, Initial residual = 0, Final residual = 0, No Iterations 0
time step continuity errors : sum local = 4.66366e-11, global = -3.73469e-11, cumulative = -4.10272e-07
DICPCG:  Solving for p_rgh, Initial residual = 6.10701e-07, Final residual = 8.24669e-09, No Iterations 22
diagonal:  Solving for rho, Initial residual = 0, Final residual = 0, No Iterations 0
time step continuity errors : sum local = 7.5397e-13, global = -6.94738e-16, cumulative = -4.10272e-07
DILUPBiCGStab:  Solving for epsilon, Initial residual = 9.20238e-06, Final residual = 6.74046e-11, No Iterations 1
DILUPBiCGStab:  Solving for k, Initial residual = 2.84271e-05, Final residual = 3.65632e-10, No Iterations 1
ExecutionTime = 7.15 s  ClockTime = 8 s

Courant Number mean: 0.00746518 max: 0.0356344
Time = 131.09

diagonal:  Solving for rho, Initial residual = 0, Final residual = 0, No Iterations 0
DILUPBiCGStab:  Solving for Ux, Initial residual = 3.03901e-05, Final residual = 2.08514e-10, No Iterations 1
DILUPBiCGStab:  Solving for Uy, Initial residual = 5.37187e-05, Final residual = 3.52335e-10, No Iterations 1
DILUPBiCGStab:  Solving for h, Initial residual = 0.000156269, Final residual = 1.37341e-09, No Iterations 1
DICPCG:  Solving for p_rgh, Initial residual = 3.67182e-05, Final residual = 3.25946e-07, No Iterations 18
diagonal:  Solving for rho, Initial residual = 0, Final residual = 0, No Iterations 0
time step continuity errors : sum local = 4.66285e-11, global = -3.73477e-11, cumulative = -4.1031e-07
DICPCG:  Solving for p_rgh, Initial residual = 6.10798e-07, Final residual = 8.24864e-09, No Iterations 22
diagonal:  Solving for rho, Initial residual = 0, Final residual = 0, No Iterations 0
time step continuity errors : sum local = 7.47778e-13, global = 3.25754e-15, cumulative = -4.1031e-07
DILUPBiCGStab:  Solving for epsilon, Initial residual = 9.19992e-06, Final residual = 6.73909e-11, No Iterations 1
DILUPBiCGStab:  Solving for k, Initial residual = 2.8422e-05, Final residual = 3.65624e-10, No Iterations 1
ExecutionTime = 7.15 s  ClockTime = 8 s

Courant Number mean: 0.00746498 max: 0.0356337
Time = 131.1

diagonal:  Solving for rho, Initial residual = 0, Final residual = 0, No Iterations 0
DILUPBiCGStab:  Solving for Ux, Initial residual = 3.03886e-05, Final residual = 2.08513e-10, No Iterations 1
DILUPBiCGStab:  Solving for Uy, Initial residual = 5.36944e-05, Final residual = 3.52137e-10, No Iterations 1
DILUPBiCGStab:  Solving for h, Initial residual = 0.000156256, Final residual = 1.37345e-09, No Iterations 1
DICPCG:  Solving for p_rgh, Initial residual = 3.67113e-05, Final residual = 3.25973e-07, No Iterations 18
diagonal:  Solving for rho, Initial residual = 0, Final residual = 0, No Iterations 0
time step continuity errors : sum local = 4.66259e-11, global = -3.73481e-11, cumulative = -4.10347e-07
DICPCG:  Solving for p_rgh, Initial residual = 6.10545e-07, Final residual = 8.24087e-09, No Iterations 22
diagonal:  Solving for rho, Initial residual = 0, Final residual = 0, No Iterations 0
time step continuity errors : sum local = 7.48761e-13, global = -1.36468e-15, cumulative = -4.10347e-07
DILUPBiCGStab:  Solving for epsilon, Initial residual = 9.19743e-06, Final residual = 6.73771e-11, No Iterations 1
DILUPBiCGStab:  Solving for k, Initial residual = 2.84169e-05, Final residual = 3.65615e-10, No Iterations 1
ExecutionTime = 7.15 s  ClockTime = 8 s

Courant Number mean: 0.00746477 max: 0.035633
Time = 131.11

diagonal:  Solving for rho, Initial residual = 0, Final residual = 0, No Iterations 0
DILUPBiCGStab:  Solving for Ux, Initial residual = 3.03869e-05, Final residual = 2.08512e-10, No Iterations 1
DILUPBiCGStab:  Solving for Uy, Initial residual = 5.367e-05, Final residual = 3.5194e-10, No Iterations 1
DILUPBiCGStab:  Solving for h, Initial residual = 0.000156243, Final residual = 1.37349e-09, No Iterations 1
DICPCG:  Solving for p_rgh, Initial residual = 3.67046e-05, Final residual = 3.26028e-07, No Iterations 18
diagonal:  Solving for rho, Initial residual = 0, Final residual = 0, No Iterations 0
time step continuity errors : sum local = 4.66126e-11, global = -3.73376e-11, cumulative = -4.10384e-07
DICPCG:  Solving for p_rgh, Initial residual = 6.10418e-07, Final residual = 8.24055e-09, No Iterations 22
diagonal:  Solving for rho, Initial residual = 0, Final residual = 0, No Iterations 0
time step continuity errors : sum local = 7.56525e-13, global = -2.44088e-15, cumulative = -4.10384e-07
DILUPBiCGStab:  Solving for epsilon, Initial residual = 9.19491e-06, Final residual = 6.73631e-11, No Iterations 1
DILUPBiCGStab:  Solving for k, Initial residual = 2.84116e-05, Final residual = 3.65605e-10, No Iterations 1
ExecutionTime = 7.15 s  ClockTime = 8 s

Courant Number mean: 0.00746457 max: 0.0356323
Time = 131.12

diagonal:  Solving for rho, Initial residual = 0, Final residual = 0, No Iterations 0
DILUPBiCGStab:  Solving for Ux, Initial residual = 3.03852e-05, Final residual = 2.0851e-10, No Iterations 1
DILUPBiCGStab:  Solving for Uy, Initial residual = 5.36456e-05, Final residual = 3.51744e-10, No Iterations 1
DILUPBiCGStab:  Solving for h, Initial residual = 0.00015623, Final residual = 1.37354e-09, No Iterations 1
DICPCG:  Solving for p_rgh, Initial residual = 3.66981e-05, Final residual = 3.26057e-07, No Iterations 18
diagonal:  Solving for rho, Initial residual = 0, Final residual = 0, No Iterations 0
time step continuity errors : sum local = 4.66023e-11, global = -3.73447e-11, cumulative = -4.10422e-07
DICPCG:  Solving for p_rgh, Initial residual = 6.10492e-07, Final residual = 8.23762e-09, No Iterations 22
diagonal:  Solving for rho, Initial residual = 0, Final residual = 0, No Iterations 0
time step continuity errors : sum local = 7.46083e-13, global = -1.83459e-15, cumulative = -4.10422e-07
DILUPBiCGStab:  Solving for epsilon, Initial residual = 9.19236e-06, Final residual = 6.7349e-11, No Iterations 1
DILUPBiCGStab:  Solving for k, Initial residual = 2.84063e-05, Final residual = 3.65595e-10, No Iterations 1
ExecutionTime = 7.16 s  ClockTime = 8 s

Courant Number mean: 0.00746437 max: 0.0356316
Time = 131.13

diagonal:  Solving for rho, Initial residual = 0, Final residual = 0, No Iterations 0
DILUPBiCGStab:  Solving for Ux, Initial residual = 3.03835e-05, Final residual = 2.08508e-10, No Iterations 1
DILUPBiCGStab:  Solving for Uy, Initial residual = 5.36212e-05, Final residual = 3.51549e-10, No Iterations 1
DILUPBiCGStab:  Solving for h, Initial residual = 0.000156217, Final residual = 1.37358e-09, No Iterations 1
DICPCG:  Solving for p_rgh, Initial residual = 3.66916e-05, Final residual = 3.26117e-07, No Iterations 18
diagonal:  Solving for rho, Initial residual = 0, Final residual = 0, No Iterations 0
time step continuity errors : sum local = 4.66065e-11, global = -3.73371e-11, cumulative = -4.10459e-07
DICPCG:  Solving for p_rgh, Initial residual = 6.10564e-07, Final residual = 8.23376e-09, No Iterations 22
diagonal:  Solving for rho, Initial residual = 0, Final residual = 0, No Iterations 0
time step continuity errors : sum local = 7.46943e-13, global = 8.78074e-15, cumulative = -4.10459e-07
DILUPBiCGStab:  Solving for epsilon, Initial residual = 9.18978e-06, Final residual = 6.73346e-11, No Iterations 1
DILUPBiCGStab:  Solving for k, Initial residual = 2.84015e-05, Final residual = 3.65584e-10, No Iterations 1
ExecutionTime = 7.16 s  ClockTime = 8 s

Courant Number mean: 0.00746416 max: 0.0356309
Time = 131.14

diagonal:  Solving for rho, Initial residual = 0, Final residual = 0, No Iterations 0
DILUPBiCGStab:  Solving for Ux, Initial residual = 3.03816e-05, Final residual = 2.08505e-10, No Iterations 1
DILUPBiCGStab:  Solving for Uy, Initial residual = 5.35967e-05, Final residual = 3.51355e-10, No Iterations 1
DILUPBiCGStab:  Solving for h, Initial residual = 0.000156204, Final residual = 1.37362e-09, No Iterations 1
DICPCG:  Solving for p_rgh, Initial residual = 3.66849e-05, Final residual = 3.26082e-07, No Iterations 18
diagonal:  Solving for rho, Initial residual = 0, Final residual = 0, No Iterations 0
time step continuity errors : sum local = 4.65974e-11, global = -3.73366e-11, cumulative = -4.10496e-07
DICPCG:  Solving for p_rgh, Initial residual = 6.105e-07, Final residual = 8.23038e-09, No Iterations 22
diagonal:  Solving for rho, Initial residual = 0, Final residual = 0, No Iterations 0
time step continuity errors : sum local = 7.56368e-13, global = 8.39803e-15, cumulative = -4.10496e-07
DILUPBiCGStab:  Solving for epsilon, Initial residual = 9.18717e-06, Final residual = 6.73201e-11, No Iterations 1
DILUPBiCGStab:  Solving for k, Initial residual = 2.83967e-05, Final residual = 3.65573e-10, No Iterations 1
ExecutionTime = 7.16 s  ClockTime = 8 s

Courant Number mean: 0.00746396 max: 0.0356303
Time = 131.15

diagonal:  Solving for rho, Initial residual = 0, Final residual = 0, No Iterations 0
DILUPBiCGStab:  Solving for Ux, Initial residual = 3.03798e-05, Final residual = 2.08502e-10, No Iterations 1
DILUPBiCGStab:  Solving for Uy, Initial residual = 5.35721e-05, Final residual = 3.51161e-10, No Iterations 1
DILUPBiCGStab:  Solving for h, Initial residual = 0.000156191, Final residual = 1.37367e-09, No Iterations 1
DICPCG:  Solving for p_rgh, Initial residual = 3.66785e-05, Final residual = 3.26142e-07, No Iterations 18
diagonal:  Solving for rho, Initial residual = 0, Final residual = 0, No Iterations 0
time step continuity errors : sum local = 4.66012e-11, global = -3.73444e-11, cumulative = -4.10534e-07
DICPCG:  Solving for p_rgh, Initial residual = 6.10354e-07, Final residual = 8.23253e-09, No Iterations 22
diagonal:  Solving for rho, Initial residual = 0, Final residual = 0, No Iterations 0
time step continuity errors : sum local = 7.44629e-13, global = -1.16217e-15, cumulative = -4.10534e-07
DILUPBiCGStab:  Solving for epsilon, Initial residual = 9.18454e-06, Final residual = 6.73054e-11, No Iterations 1
DILUPBiCGStab:  Solving for k, Initial residual = 2.83918e-05, Final residual = 3.65562e-10, No Iterations 1
ExecutionTime = 7.16 s  ClockTime = 8 s

Courant Number mean: 0.00746375 max: 0.0356296
Time = 131.16

diagonal:  Solving for rho, Initial residual = 0, Final residual = 0, No Iterations 0
DILUPBiCGStab:  Solving for Ux, Initial residual = 3.03778e-05, Final residual = 2.08498e-10, No Iterations 1
DILUPBiCGStab:  Solving for Uy, Initial residual = 5.35475e-05, Final residual = 3.50969e-10, No Iterations 1
DILUPBiCGStab:  Solving for h, Initial residual = 0.000156178, Final residual = 1.37371e-09, No Iterations 1
DICPCG:  Solving for p_rgh, Initial residual = 3.66724e-05, Final residual = 3.26175e-07, No Iterations 18
diagonal:  Solving for rho, Initial residual = 0, Final residual = 0, No Iterations 0
time step continuity errors : sum local = 4.65858e-11, global = -3.73274e-11, cumulative = -4.10571e-07
DICPCG:  Solving for p_rgh, Initial residual = 6.1024e-07, Final residual = 8.21774e-09, No Iterations 22
diagonal:  Solving for rho, Initial residual = 0, Final residual = 0, No Iterations 0
time step continuity errors : sum local = 7.56475e-13, global = 1.04781e-14, cumulative = -4.10571e-07
DILUPBiCGStab:  Solving for epsilon, Initial residual = 9.18188e-06, Final residual = 6.72905e-11, No Iterations 1
DILUPBiCGStab:  Solving for k, Initial residual = 2.83868e-05, Final residual = 3.65549e-10, No Iterations 1
ExecutionTime = 7.16 s  ClockTime = 8 s

Courant Number mean: 0.00746355 max: 0.0356289
Time = 131.17

diagonal:  Solving for rho, Initial residual = 0, Final residual = 0, No Iterations 0
DILUPBiCGStab:  Solving for Ux, Initial residual = 3.03758e-05, Final residual = 2.08494e-10, No Iterations 1
DILUPBiCGStab:  Solving for Uy, Initial residual = 5.35229e-05, Final residual = 3.50778e-10, No Iterations 1
DILUPBiCGStab:  Solving for h, Initial residual = 0.000156165, Final residual = 1.37376e-09, No Iterations 1
DICPCG:  Solving for p_rgh, Initial residual = 3.66663e-05, Final residual = 3.26268e-07, No Iterations 18
diagonal:  Solving for rho, Initial residual = 0, Final residual = 0, No Iterations 0
time step continuity errors : sum local = 4.65926e-11, global = -3.73303e-11, cumulative = -4.10608e-07
DICPCG:  Solving for p_rgh, Initial residual = 6.10443e-07, Final residual = 8.22364e-09, No Iterations 22
diagonal:  Solving for rho, Initial residual = 0, Final residual = 0, No Iterations 0
time step continuity errors : sum local = 7.40669e-13, global = -7.00525e-16, cumulative = -4.10608e-07
DILUPBiCGStab:  Solving for epsilon, Initial residual = 9.17919e-06, Final residual = 6.72755e-11, No Iterations 1
DILUPBiCGStab:  Solving for k, Initial residual = 2.83817e-05, Final residual = 3.65536e-10, No Iterations 1
ExecutionTime = 7.17 s  ClockTime = 8 s

Courant Number mean: 0.00746334 max: 0.0356282
Time = 131.18

diagonal:  Solving for rho, Initial residual = 0, Final residual = 0, No Iterations 0
DILUPBiCGStab:  Solving for Ux, Initial residual = 3.03738e-05, Final residual = 2.08489e-10, No Iterations 1
DILUPBiCGStab:  Solving for Uy, Initial residual = 5.34982e-05, Final residual = 3.50587e-10, No Iterations 1
DILUPBiCGStab:  Solving for h, Initial residual = 0.000156153, Final residual = 1.3738e-09, No Iterations 1
DICPCG:  Solving for p_rgh, Initial residual = 3.666e-05, Final residual = 3.26287e-07, No Iterations 18
diagonal:  Solving for rho, Initial residual = 0, Final residual = 0, No Iterations 0
time step continuity errors : sum local = 4.65842e-11, global = -3.73303e-11, cumulative = -4.10646e-07
DICPCG:  Solving for p_rgh, Initial residual = 6.10309e-07, Final residual = 8.21747e-09, No Iterations 22
diagonal:  Solving for rho, Initial residual = 0, Final residual = 0, No Iterations 0
time step continuity errors : sum local = 7.42269e-13, global = -6.70562e-15, cumulative = -4.10646e-07
DILUPBiCGStab:  Solving for epsilon, Initial residual = 9.17647e-06, Final residual = 6.72604e-11, No Iterations 1
DILUPBiCGStab:  Solving for k, Initial residual = 2.83765e-05, Final residual = 3.65522e-10, No Iterations 1
ExecutionTime = 7.17 s  ClockTime = 8 s

Courant Number mean: 0.00746314 max: 0.0356275
Time = 131.19

diagonal:  Solving for rho, Initial residual = 0, Final residual = 0, No Iterations 0
DILUPBiCGStab:  Solving for Ux, Initial residual = 3.03716e-05, Final residual = 2.08484e-10, No Iterations 1
DILUPBiCGStab:  Solving for Uy, Initial residual = 5.34735e-05, Final residual = 3.50397e-10, No Iterations 1
DILUPBiCGStab:  Solving for h, Initial residual = 0.00015614, Final residual = 1.37385e-09, No Iterations 1
DICPCG:  Solving for p_rgh, Initial residual = 3.66536e-05, Final residual = 3.26357e-07, No Iterations 18
diagonal:  Solving for rho, Initial residual = 0, Final residual = 0, No Iterations 0
time step continuity errors : sum local = 4.65835e-11, global = -3.73332e-11, cumulative = -4.10683e-07
DICPCG:  Solving for p_rgh, Initial residual = 6.10317e-07, Final residual = 8.21752e-09, No Iterations 22
diagonal:  Solving for rho, Initial residual = 0, Final residual = 0, No Iterations 0
time step continuity errors : sum local = 7.564e-13, global = -2.0743e-15, cumulative = -4.10683e-07
DILUPBiCGStab:  Solving for epsilon, Initial residual = 9.17372e-06, Final residual = 6.72451e-11, No Iterations 1
DILUPBiCGStab:  Solving for k, Initial residual = 2.83712e-05, Final residual = 3.65508e-10, No Iterations 1
ExecutionTime = 7.17 s  ClockTime = 8 s

Courant Number mean: 0.00746293 max: 0.0356268
Time = 131.2

diagonal:  Solving for rho, Initial residual = 0, Final residual = 0, No Iterations 0
