/*---------------------------------------------------------------------------*\
  =========                 |
  \\      /  F ield         | OpenFOAM: The Open Source CFD Toolbox
   \\    /   O peration     | Website:  https://openfoam.org
    \\  /    A nd           | Version:  6
     \\/     M anipulation  |
\*---------------------------------------------------------------------------*/
Build  : 6-f934eabb0d52
Exec   : buoyantPimpleFoam -case /home/mamitsu/OpenFOAM/mamitsu-6/run/aircond5/Case/case1
Date   : May 15 2019
Time   : 17:26:07
Host   : "mamitsu-desktop"
PID    : 5793
I/O    : uncollated
Case   : /home/mamitsu/OpenFOAM/mamitsu-6/run/aircond5/Case/case1
nProcs : 1
sigFpe : Enabling floating point exception trapping (FOAM_SIGFPE).
fileModificationChecking : Monitoring run-time modified files using timeStampMaster (fileModificationSkew 10)
allowSystemOperations : Allowing user-supplied system call operations

// * * * * * * * * * * * * * * * * * * * * * * * * * * * * * * * * * * * * * //
Create time

Create mesh for time = 100


PIMPLE: No convergence criteria found


PIMPLE: Operating solver in PISO mode

Reading thermophysical properties

Selecting thermodynamics package
{
    type            heRhoThermo;
    mixture         pureMixture;
    transport       const;
    thermo          hConst;
    equationOfState perfectGas;
    specie          specie;
    energy          sensibleEnthalpy;
}

Reading field U

Reading/calculating face flux field phi

Creating turbulence model

Selecting turbulence model type RAS
Selecting RAS turbulence model kEpsilon
RAS
{
    RASModel        kEpsilon;
    turbulence      on;
    printCoeffs     on;
    Cmu             0.09;
    C1              1.44;
    C2              1.92;
    C3              0;
    sigmak          1;
    sigmaEps        1.3;
}


Reading g

Reading hRef
Calculating field g.h

Reading field p_rgh

Creating field dpdt

Creating field kinetic energy K

No MRF models present

Radiation model not active: radiationProperties not found
Selecting radiationModel none
No finite volume options present
Courant Number mean: 0.00573105 max: 0.0296305

Starting time loop

Courant Number mean: 0.00573105 max: 0.0296305
Time = 100.01

diagonal:  Solving for rho, Initial residual = 0, Final residual = 0, No Iterations 0
DILUPBiCGStab:  Solving for Ux, Initial residual = 0.00262847, Final residual = 9.32662e-08, No Iterations 1
DILUPBiCGStab:  Solving for Uy, Initial residual = 0.134913, Final residual = 9.98462e-07, No Iterations 1
DILUPBiCGStab:  Solving for h, Initial residual = 0.000172943, Final residual = 4.02929e-09, No Iterations 1
DICPCG:  Solving for p_rgh, Initial residual = 0.965017, Final residual = 0.0063697, No Iterations 21
diagonal:  Solving for rho, Initial residual = 0, Final residual = 0, No Iterations 0
time step continuity errors : sum local = 8.17021e-06, global = 1.09846e-07, cumulative = 1.09846e-07
DICPCG:  Solving for p_rgh, Initial residual = 0.0284201, Final residual = 6.20815e-09, No Iterations 38
diagonal:  Solving for rho, Initial residual = 0, Final residual = 0, No Iterations 0
time step continuity errors : sum local = 4.38296e-09, global = 4.38296e-09, cumulative = 1.14229e-07
DILUPBiCGStab:  Solving for epsilon, Initial residual = 0.00666864, Final residual = 3.281e-07, No Iterations 1
DILUPBiCGStab:  Solving for k, Initial residual = 0.000578846, Final residual = 2.44843e-08, No Iterations 1
ExecutionTime = 0.01 s  ClockTime = 0 s

Courant Number mean: 0.00573284 max: 0.0259814
Time = 100.02

diagonal:  Solving for rho, Initial residual = 0, Final residual = 0, No Iterations 0
DILUPBiCGStab:  Solving for Ux, Initial residual = 0.0348741, Final residual = 4.48168e-07, No Iterations 1
DILUPBiCGStab:  Solving for Uy, Initial residual = 0.0475823, Final residual = 8.03439e-07, No Iterations 1
DILUPBiCGStab:  Solving for h, Initial residual = 0.000513079, Final residual = 2.21718e-08, No Iterations 1
DICPCG:  Solving for p_rgh, Initial residual = 0.449008, Final residual = 0.00368024, No Iterations 24
diagonal:  Solving for rho, Initial residual = 0, Final residual = 0, No Iterations 0
time step continuity errors : sum local = 1.00738e-06, global = -6.67665e-09, cumulative = 1.07553e-07
DICPCG:  Solving for p_rgh, Initial residual = 0.00907035, Final residual = 9.52858e-09, No Iterations 37
diagonal:  Solving for rho, Initial residual = 0, Final residual = 0, No Iterations 0
time step continuity errors : sum local = 3.22395e-09, global = 2.74327e-09, cumulative = 1.10296e-07
DILUPBiCGStab:  Solving for epsilon, Initial residual = 0.00037412, Final residual = 1.03296e-08, No Iterations 1
DILUPBiCGStab:  Solving for k, Initial residual = 0.000632219, Final residual = 2.81655e-08, No Iterations 1
ExecutionTime = 0.01 s  ClockTime = 0 s

Courant Number mean: 0.00574131 max: 0.0266996
Time = 100.03

diagonal:  Solving for rho, Initial residual = 0, Final residual = 0, No Iterations 0
DILUPBiCGStab:  Solving for Ux, Initial residual = 0.016565, Final residual = 1.61458e-07, No Iterations 1
DILUPBiCGStab:  Solving for Uy, Initial residual = 0.0209462, Final residual = 3.80214e-07, No Iterations 1
DILUPBiCGStab:  Solving for h, Initial residual = 0.00211881, Final residual = 3.4394e-08, No Iterations 1
DICPCG:  Solving for p_rgh, Initial residual = 0.152667, Final residual = 0.00110961, No Iterations 22
diagonal:  Solving for rho, Initial residual = 0, Final residual = 0, No Iterations 0
time step continuity errors : sum local = 3.2097e-07, global = 3.20401e-10, cumulative = 1.10616e-07
DICPCG:  Solving for p_rgh, Initial residual = 0.00134299, Final residual = 5.57456e-09, No Iterations 35
diagonal:  Solving for rho, Initial residual = 0, Final residual = 0, No Iterations 0
time step continuity errors : sum local = 2.83579e-09, global = 2.53915e-09, cumulative = 1.13155e-07
DILUPBiCGStab:  Solving for epsilon, Initial residual = 0.00046134, Final residual = 1.39e-08, No Iterations 1
DILUPBiCGStab:  Solving for k, Initial residual = 0.000701175, Final residual = 3.48173e-08, No Iterations 1
ExecutionTime = 0.01 s  ClockTime = 0 s

Courant Number mean: 0.00579123 max: 0.0271767
Time = 100.04

diagonal:  Solving for rho, Initial residual = 0, Final residual = 0, No Iterations 0
DILUPBiCGStab:  Solving for Ux, Initial residual = 0.0117989, Final residual = 1.318e-07, No Iterations 1
DILUPBiCGStab:  Solving for Uy, Initial residual = 0.0187098, Final residual = 3.50463e-07, No Iterations 1
DILUPBiCGStab:  Solving for h, Initial residual = 0.00188694, Final residual = 3.12899e-08, No Iterations 1
DICPCG:  Solving for p_rgh, Initial residual = 0.0690542, Final residual = 0.000605497, No Iterations 22
diagonal:  Solving for rho, Initial residual = 0, Final residual = 0, No Iterations 0
time step continuity errors : sum local = 2.0684e-07, global = -6.29853e-10, cumulative = 1.12526e-07
DICPCG:  Solving for p_rgh, Initial residual = 0.000767138, Final residual = 5.43693e-09, No Iterations 33
diagonal:  Solving for rho, Initial residual = 0, Final residual = 0, No Iterations 0
time step continuity errors : sum local = 1.3892e-09, global = 1.25807e-09, cumulative = 1.13784e-07
DILUPBiCGStab:  Solving for epsilon, Initial residual = 0.000546733, Final residual = 1.66806e-08, No Iterations 1
DILUPBiCGStab:  Solving for k, Initial residual = 0.000769567, Final residual = 4.11971e-08, No Iterations 1
ExecutionTime = 0.02 s  ClockTime = 0 s

Courant Number mean: 0.00587035 max: 0.0303584
Time = 100.05

diagonal:  Solving for rho, Initial residual = 0, Final residual = 0, No Iterations 0
DILUPBiCGStab:  Solving for Ux, Initial residual = 0.0231328, Final residual = 2.09647e-07, No Iterations 1
DILUPBiCGStab:  Solving for Uy, Initial residual = 0.0166231, Final residual = 3.37634e-07, No Iterations 1
DILUPBiCGStab:  Solving for h, Initial residual = 0.0011273, Final residual = 2.44912e-08, No Iterations 1
DICPCG:  Solving for p_rgh, Initial residual = 0.0113041, Final residual = 8.96673e-05, No Iterations 22
diagonal:  Solving for rho, Initial residual = 0, Final residual = 0, No Iterations 0
time step continuity errors : sum local = 3.36243e-08, global = -2.68268e-10, cumulative = 1.13515e-07
DICPCG:  Solving for p_rgh, Initial residual = 0.000134757, Final residual = 9.02815e-09, No Iterations 30
diagonal:  Solving for rho, Initial residual = 0, Final residual = 0, No Iterations 0
time step continuity errors : sum local = 2.88525e-10, global = -2.88461e-10, cumulative = 1.13227e-07
DILUPBiCGStab:  Solving for epsilon, Initial residual = 0.00064994, Final residual = 1.94251e-08, No Iterations 1
DILUPBiCGStab:  Solving for k, Initial residual = 0.000855721, Final residual = 4.79114e-08, No Iterations 1
ExecutionTime = 0.02 s  ClockTime = 0 s

Courant Number mean: 0.00595579 max: 0.0341325
Time = 100.06

diagonal:  Solving for rho, Initial residual = 0, Final residual = 0, No Iterations 0
DILUPBiCGStab:  Solving for Ux, Initial residual = 0.0223823, Final residual = 2.17186e-07, No Iterations 1
DILUPBiCGStab:  Solving for Uy, Initial residual = 0.0155831, Final residual = 3.48053e-07, No Iterations 1
DILUPBiCGStab:  Solving for h, Initial residual = 0.000384606, Final residual = 1.75456e-08, No Iterations 1
DICPCG:  Solving for p_rgh, Initial residual = 0.0406884, Final residual = 0.000225001, No Iterations 21
diagonal:  Solving for rho, Initial residual = 0, Final residual = 0, No Iterations 0
time step continuity errors : sum local = 7.99809e-08, global = -7.62685e-10, cumulative = 1.12464e-07
DICPCG:  Solving for p_rgh, Initial residual = 0.000438547, Final residual = 9.78998e-09, No Iterations 32
diagonal:  Solving for rho, Initial residual = 0, Final residual = 0, No Iterations 0
time step continuity errors : sum local = 1.70249e-09, global = -1.70249e-09, cumulative = 1.10762e-07
DILUPBiCGStab:  Solving for epsilon, Initial residual = 0.00073479, Final residual = 2.20031e-08, No Iterations 1
DILUPBiCGStab:  Solving for k, Initial residual = 0.000923297, Final residual = 5.33764e-08, No Iterations 1
ExecutionTime = 0.02 s  ClockTime = 0 s

Courant Number mean: 0.00602503 max: 0.0374039
Time = 100.07

diagonal:  Solving for rho, Initial residual = 0, Final residual = 0, No Iterations 0
DILUPBiCGStab:  Solving for Ux, Initial residual = 0.0148831, Final residual = 1.74094e-07, No Iterations 1
DILUPBiCGStab:  Solving for Uy, Initial residual = 0.0127998, Final residual = 3.1117e-07, No Iterations 1
DILUPBiCGStab:  Solving for h, Initial residual = 0.00111329, Final residual = 2.38623e-08, No Iterations 1
DICPCG:  Solving for p_rgh, Initial residual = 0.0735846, Final residual = 0.000669085, No Iterations 20
diagonal:  Solving for rho, Initial residual = 0, Final residual = 0, No Iterations 0
time step continuity errors : sum local = 2.02683e-07, global = -3.88552e-10, cumulative = 1.10373e-07
DICPCG:  Solving for p_rgh, Initial residual = 0.00131035, Final residual = 6.87854e-09, No Iterations 33
diagonal:  Solving for rho, Initial residual = 0, Final residual = 0, No Iterations 0
time step continuity errors : sum local = 2.73303e-09, global = -2.73303e-09, cumulative = 1.0764e-07
DILUPBiCGStab:  Solving for epsilon, Initial residual = 0.000813109, Final residual = 2.46439e-08, No Iterations 1
DILUPBiCGStab:  Solving for k, Initial residual = 0.000977166, Final residual = 5.73013e-08, No Iterations 1
ExecutionTime = 0.02 s  ClockTime = 0 s

Courant Number mean: 0.00606374 max: 0.0395875
Time = 100.08

diagonal:  Solving for rho, Initial residual = 0, Final residual = 0, No Iterations 0
DILUPBiCGStab:  Solving for Ux, Initial residual = 0.0070632, Final residual = 1.01351e-07, No Iterations 1
DILUPBiCGStab:  Solving for Uy, Initial residual = 0.00830258, Final residual = 2.05565e-07, No Iterations 1
DILUPBiCGStab:  Solving for h, Initial residual = 0.0016881, Final residual = 2.97587e-08, No Iterations 1
DICPCG:  Solving for p_rgh, Initial residual = 0.11726, Final residual = 0.000775418, No Iterations 20
diagonal:  Solving for rho, Initial residual = 0, Final residual = 0, No Iterations 0
time step continuity errors : sum local = 1.81006e-07, global = -1.42701e-09, cumulative = 1.06213e-07
DICPCG:  Solving for p_rgh, Initial residual = 0.00215475, Final residual = 9.29832e-09, No Iterations 32
diagonal:  Solving for rho, Initial residual = 0, Final residual = 0, No Iterations 0
time step continuity errors : sum local = 3.21592e-09, global = -3.21592e-09, cumulative = 1.02997e-07
DILUPBiCGStab:  Solving for epsilon, Initial residual = 0.000880079, Final residual = 2.71527e-08, No Iterations 1
DILUPBiCGStab:  Solving for k, Initial residual = 0.00100815, Final residual = 5.89082e-08, No Iterations 1
ExecutionTime = 0.02 s  ClockTime = 0 s

Courant Number mean: 0.00607343 max: 0.0402907
Time = 100.09

diagonal:  Solving for rho, Initial residual = 0, Final residual = 0, No Iterations 0
DILUPBiCGStab:  Solving for Ux, Initial residual = 0.00199942, Final residual = 4.6323e-08, No Iterations 1
DILUPBiCGStab:  Solving for Uy, Initial residual = 0.00323703, Final residual = 7.94974e-08, No Iterations 1
DILUPBiCGStab:  Solving for h, Initial residual = 0.00196244, Final residual = 3.24709e-08, No Iterations 1
DICPCG:  Solving for p_rgh, Initial residual = 0.183425, Final residual = 0.00138202, No Iterations 20
diagonal:  Solving for rho, Initial residual = 0, Final residual = 0, No Iterations 0
time step continuity errors : sum local = 2.08292e-07, global = -8.70147e-10, cumulative = 1.02127e-07
DICPCG:  Solving for p_rgh, Initial residual = 0.00356435, Final residual = 5.54745e-09, No Iterations 35
diagonal:  Solving for rho, Initial residual = 0, Final residual = 0, No Iterations 0
time step continuity errors : sum local = 3.11893e-09, global = -3.11893e-09, cumulative = 9.90082e-08
DILUPBiCGStab:  Solving for epsilon, Initial residual = 0.000935824, Final residual = 2.95077e-08, No Iterations 1
DILUPBiCGStab:  Solving for k, Initial residual = 0.00101168, Final residual = 5.8258e-08, No Iterations 1
ExecutionTime = 0.03 s  ClockTime = 0 s

Courant Number mean: 0.00605861 max: 0.0395424
Time = 100.1

diagonal:  Solving for rho, Initial residual = 0, Final residual = 0, No Iterations 0
DILUPBiCGStab:  Solving for Ux, Initial residual = 0.00390809, Final residual = 5.40547e-08, No Iterations 1
DILUPBiCGStab:  Solving for Uy, Initial residual = 0.00312419, Final residual = 5.99136e-08, No Iterations 1
DILUPBiCGStab:  Solving for h, Initial residual = 0.00190946, Final residual = 3.16787e-08, No Iterations 1
DICPCG:  Solving for p_rgh, Initial residual = 0.243978, Final residual = 0.00237284, No Iterations 20
diagonal:  Solving for rho, Initial residual = 0, Final residual = 0, No Iterations 0
time step continuity errors : sum local = 2.27285e-07, global = 3.17033e-10, cumulative = 9.93252e-08
DICPCG:  Solving for p_rgh, Initial residual = 0.00196537, Final residual = 9.0262e-09, No Iterations 34
diagonal:  Solving for rho, Initial residual = 0, Final residual = 0, No Iterations 0
time step continuity errors : sum local = 2.53607e-09, global = -2.53607e-09, cumulative = 9.67892e-08
DILUPBiCGStab:  Solving for epsilon, Initial residual = 0.000980242, Final residual = 3.16399e-08, No Iterations 1
DILUPBiCGStab:  Solving for k, Initial residual = 0.000994899, Final residual = 5.61235e-08, No Iterations 1
ExecutionTime = 0.03 s  ClockTime = 0 s

Courant Number mean: 0.0060245 max: 0.0377075
Time = 100.11

diagonal:  Solving for rho, Initial residual = 0, Final residual = 0, No Iterations 0
DILUPBiCGStab:  Solving for Ux, Initial residual = 0.00724302, Final residual = 9.31699e-08, No Iterations 1
DILUPBiCGStab:  Solving for Uy, Initial residual = 0.0067932, Final residual = 1.57856e-07, No Iterations 1
DILUPBiCGStab:  Solving for h, Initial residual = 0.00158183, Final residual = 2.80895e-08, No Iterations 1
DICPCG:  Solving for p_rgh, Initial residual = 0.102738, Final residual = 0.000783325, No Iterations 16
diagonal:  Solving for rho, Initial residual = 0, Final residual = 0, No Iterations 0
time step continuity errors : sum local = 1.2168e-07, global = -1.24683e-09, cumulative = 9.55423e-08
DICPCG:  Solving for p_rgh, Initial residual = 0.000803408, Final residual = 6.78636e-09, No Iterations 34
diagonal:  Solving for rho, Initial residual = 0, Final residual = 0, No Iterations 0
time step continuity errors : sum local = 1.63563e-09, global = -1.63563e-09, cumulative = 9.39067e-08
DILUPBiCGStab:  Solving for epsilon, Initial residual = 0.0010174, Final residual = 3.35343e-08, No Iterations 1
DILUPBiCGStab:  Solving for k, Initial residual = 0.000972215, Final residual = 5.34813e-08, No Iterations 1
ExecutionTime = 0.03 s  ClockTime = 0 s

Courant Number mean: 0.00597843 max: 0.0352804
Time = 100.12

diagonal:  Solving for rho, Initial residual = 0, Final residual = 0, No Iterations 0
DILUPBiCGStab:  Solving for Ux, Initial residual = 0.0097428, Final residual = 1.21323e-07, No Iterations 1
DILUPBiCGStab:  Solving for Uy, Initial residual = 0.00900506, Final residual = 2.05993e-07, No Iterations 1
DILUPBiCGStab:  Solving for h, Initial residual = 0.00107693, Final residual = 2.27173e-08, No Iterations 1
DICPCG:  Solving for p_rgh, Initial residual = 0.0369422, Final residual = 0.000245248, No Iterations 22
diagonal:  Solving for rho, Initial residual = 0, Final residual = 0, No Iterations 0
time step continuity errors : sum local = 4.68249e-08, global = 3.93512e-10, cumulative = 9.43002e-08
DICPCG:  Solving for p_rgh, Initial residual = 0.00029882, Final residual = 6.52433e-09, No Iterations 32
diagonal:  Solving for rho, Initial residual = 0, Final residual = 0, No Iterations 0
time step continuity errors : sum local = 6.05209e-10, global = -6.05209e-10, cumulative = 9.3695e-08
DILUPBiCGStab:  Solving for epsilon, Initial residual = 0.00104331, Final residual = 3.50575e-08, No Iterations 1
DILUPBiCGStab:  Solving for k, Initial residual = 0.000944123, Final residual = 5.06159e-08, No Iterations 1
ExecutionTime = 0.03 s  ClockTime = 0 s

Courant Number mean: 0.00593064 max: 0.0327363
Time = 100.13

diagonal:  Solving for rho, Initial residual = 0, Final residual = 0, No Iterations 0
DILUPBiCGStab:  Solving for Ux, Initial residual = 0.010655, Final residual = 1.20688e-07, No Iterations 1
DILUPBiCGStab:  Solving for Uy, Initial residual = 0.00987228, Final residual = 2.14057e-07, No Iterations 1
DILUPBiCGStab:  Solving for h, Initial residual = 0.000503669, Final residual = 1.6628e-08, No Iterations 1
DICPCG:  Solving for p_rgh, Initial residual = 0.0246323, Final residual = 0.000153177, No Iterations 22
diagonal:  Solving for rho, Initial residual = 0, Final residual = 0, No Iterations 0
time step continuity errors : sum local = 3.1049e-08, global = 2.84202e-10, cumulative = 9.39792e-08
DICPCG:  Solving for p_rgh, Initial residual = 0.000287752, Final residual = 8.87408e-09, No Iterations 31
diagonal:  Solving for rho, Initial residual = 0, Final residual = 0, No Iterations 0
time step continuity errors : sum local = 3.80493e-10, global = 3.79403e-10, cumulative = 9.43586e-08
DILUPBiCGStab:  Solving for epsilon, Initial residual = 0.00106795, Final residual = 3.6281e-08, No Iterations 1
DILUPBiCGStab:  Solving for k, Initial residual = 0.000922441, Final residual = 4.79659e-08, No Iterations 1
ExecutionTime = 0.04 s  ClockTime = 0 s

Courant Number mean: 0.00588908 max: 0.0304729
Time = 100.14

diagonal:  Solving for rho, Initial residual = 0, Final residual = 0, No Iterations 0
DILUPBiCGStab:  Solving for Ux, Initial residual = 0.00970953, Final residual = 1.00821e-07, No Iterations 1
DILUPBiCGStab:  Solving for Uy, Initial residual = 0.00914933, Final residual = 1.87382e-07, No Iterations 1
DILUPBiCGStab:  Solving for h, Initial residual = 0.000628075, Final residual = 1.72483e-08, No Iterations 1
DICPCG:  Solving for p_rgh, Initial residual = 0.0543883, Final residual = 0.000481223, No Iterations 18
diagonal:  Solving for rho, Initial residual = 0, Final residual = 0, No Iterations 0
time step continuity errors : sum local = 9.25894e-08, global = 1.50615e-09, cumulative = 9.58648e-08
DICPCG:  Solving for p_rgh, Initial residual = 0.000824049, Final residual = 9.97431e-09, No Iterations 32
diagonal:  Solving for rho, Initial residual = 0, Final residual = 0, No Iterations 0
time step continuity errors : sum local = 1.1761e-09, global = 1.1761e-09, cumulative = 9.70409e-08
DILUPBiCGStab:  Solving for epsilon, Initial residual = 0.00109296, Final residual = 3.73534e-08, No Iterations 1
DILUPBiCGStab:  Solving for k, Initial residual = 0.000907159, Final residual = 4.61111e-08, No Iterations 1
ExecutionTime = 0.04 s  ClockTime = 0 s

Courant Number mean: 0.00586097 max: 0.0287913
Time = 100.15

diagonal:  Solving for rho, Initial residual = 0, Final residual = 0, No Iterations 0
DILUPBiCGStab:  Solving for Ux, Initial residual = 0.00726625, Final residual = 7.28967e-08, No Iterations 1
DILUPBiCGStab:  Solving for Uy, Initial residual = 0.00705801, Final residual = 1.3709e-07, No Iterations 1
DILUPBiCGStab:  Solving for h, Initial residual = 0.00104815, Final residual = 2.05363e-08, No Iterations 1
DICPCG:  Solving for p_rgh, Initial residual = 0.0866566, Final residual = 0.00057084, No Iterations 20
diagonal:  Solving for rho, Initial residual = 0, Final residual = 0, No Iterations 0
time step continuity errors : sum local = 9.30609e-08, global = 1.01385e-09, cumulative = 9.80547e-08
DICPCG:  Solving for p_rgh, Initial residual = 0.00130941, Final residual = 9.41246e-09, No Iterations 33
diagonal:  Solving for rho, Initial residual = 0, Final residual = 0, No Iterations 0
time step continuity errors : sum local = 1.68778e-09, global = 1.68778e-09, cumulative = 9.97425e-08
DILUPBiCGStab:  Solving for epsilon, Initial residual = 0.00111386, Final residual = 3.81818e-08, No Iterations 1
DILUPBiCGStab:  Solving for k, Initial residual = 0.000897581, Final residual = 4.53424e-08, No Iterations 1
ExecutionTime = 0.04 s  ClockTime = 0 s

Courant Number mean: 0.00584663 max: 0.0278777
Time = 100.16

diagonal:  Solving for rho, Initial residual = 0, Final residual = 0, No Iterations 0
DILUPBiCGStab:  Solving for Ux, Initial residual = 0.00405849, Final residual = 4.82605e-08, No Iterations 1
DILUPBiCGStab:  Solving for Uy, Initial residual = 0.00406505, Final residual = 7.43439e-08, No Iterations 1
DILUPBiCGStab:  Solving for h, Initial residual = 0.00131945, Final residual = 2.25583e-08, No Iterations 1
DICPCG:  Solving for p_rgh, Initial residual = 0.13393, Final residual = 0.00104018, No Iterations 20
diagonal:  Solving for rho, Initial residual = 0, Final residual = 0, No Iterations 0
time step continuity errors : sum local = 1.26045e-07, global = 1.43009e-09, cumulative = 1.01173e-07
DICPCG:  Solving for p_rgh, Initial residual = 0.00212671, Final residual = 6.67507e-09, No Iterations 34
diagonal:  Solving for rho, Initial residual = 0, Final residual = 0, No Iterations 0
time step continuity errors : sum local = 1.87202e-09, global = 1.87202e-09, cumulative = 1.03045e-07
DILUPBiCGStab:  Solving for epsilon, Initial residual = 0.00112992, Final residual = 3.87229e-08, No Iterations 1
DILUPBiCGStab:  Solving for k, Initial residual = 0.000896019, Final residual = 4.58717e-08, No Iterations 1
ExecutionTime = 0.04 s  ClockTime = 0 s

Courant Number mean: 0.00584574 max: 0.0277839
Time = 100.17

diagonal:  Solving for rho, Initial residual = 0, Final residual = 0, No Iterations 0
DILUPBiCGStab:  Solving for Ux, Initial residual = 0.000829673, Final residual = 2.51027e-08, No Iterations 1
DILUPBiCGStab:  Solving for Uy, Initial residual = 0.00108778, Final residual = 2.38667e-08, No Iterations 1
DILUPBiCGStab:  Solving for h, Initial residual = 0.00141736, Final residual = 2.30648e-08, No Iterations 1
DICPCG:  Solving for p_rgh, Initial residual = 0.173403, Final residual = 0.00151941, No Iterations 20
diagonal:  Solving for rho, Initial residual = 0, Final residual = 0, No Iterations 0
time step continuity errors : sum local = 1.36366e-07, global = 1.676e-09, cumulative = 1.04721e-07
DICPCG:  Solving for p_rgh, Initial residual = 0.00135926, Final residual = 6.31765e-09, No Iterations 33
diagonal:  Solving for rho, Initial residual = 0, Final residual = 0, No Iterations 0
time step continuity errors : sum local = 1.7416e-09, global = 1.7416e-09, cumulative = 1.06462e-07
DILUPBiCGStab:  Solving for epsilon, Initial residual = 0.0011416, Final residual = 3.90365e-08, No Iterations 1
DILUPBiCGStab:  Solving for k, Initial residual = 0.000911259, Final residual = 4.69044e-08, No Iterations 1
ExecutionTime = 0.05 s  ClockTime = 0 s

Courant Number mean: 0.00585663 max: 0.0284277
Time = 100.18

diagonal:  Solving for rho, Initial residual = 0, Final residual = 0, No Iterations 0
DILUPBiCGStab:  Solving for Ux, Initial residual = 0.00299005, Final residual = 4.52109e-08, No Iterations 1
DILUPBiCGStab:  Solving for Uy, Initial residual = 0.00245301, Final residual = 7.1682e-08, No Iterations 1
DILUPBiCGStab:  Solving for h, Initial residual = 0.00134681, Final residual = 2.21796e-08, No Iterations 1
DICPCG:  Solving for p_rgh, Initial residual = 0.0939345, Final residual = 0.000674399, No Iterations 16
diagonal:  Solving for rho, Initial residual = 0, Final residual = 0, No Iterations 0
time step continuity errors : sum local = 9.0096e-08, global = 1.85935e-09, cumulative = 1.08322e-07
DICPCG:  Solving for p_rgh, Initial residual = 0.000716405, Final residual = 7.37922e-09, No Iterations 33
diagonal:  Solving for rho, Initial residual = 0, Final residual = 0, No Iterations 0
time step continuity errors : sum local = 1.35757e-09, global = 1.35757e-09, cumulative = 1.09679e-07
DILUPBiCGStab:  Solving for epsilon, Initial residual = 0.00115257, Final residual = 3.92819e-08, No Iterations 1
DILUPBiCGStab:  Solving for k, Initial residual = 0.000925495, Final residual = 4.773e-08, No Iterations 1
ExecutionTime = 0.05 s  ClockTime = 0 s

Courant Number mean: 0.00587703 max: 0.0296181
Time = 100.19

diagonal:  Solving for rho, Initial residual = 0, Final residual = 0, No Iterations 0
DILUPBiCGStab:  Solving for Ux, Initial residual = 0.00515154, Final residual = 6.25807e-08, No Iterations 1
DILUPBiCGStab:  Solving for Uy, Initial residual = 0.00448076, Final residual = 1.19823e-07, No Iterations 1
DILUPBiCGStab:  Solving for h, Initial residual = 0.00114176, Final residual = 2.02102e-08, No Iterations 1
DICPCG:  Solving for p_rgh, Initial residual = 0.0484231, Final residual = 0.000480875, No Iterations 20
diagonal:  Solving for rho, Initial residual = 0, Final residual = 0, No Iterations 0
time step continuity errors : sum local = 7.98273e-08, global = -8.52144e-10, cumulative = 1.08827e-07
DICPCG:  Solving for p_rgh, Initial residual = 0.000493961, Final residual = 7.90753e-09, No Iterations 31
diagonal:  Solving for rho, Initial residual = 0, Final residual = 0, No Iterations 0
time step continuity errors : sum local = 8.12634e-10, global = 8.12634e-10, cumulative = 1.0964e-07
DILUPBiCGStab:  Solving for epsilon, Initial residual = 0.0011659, Final residual = 3.95687e-08, No Iterations 1
DILUPBiCGStab:  Solving for k, Initial residual = 0.000939111, Final residual = 4.8734e-08, No Iterations 1
ExecutionTime = 0.05 s  ClockTime = 0 s

Courant Number mean: 0.00590438 max: 0.0311007
Time = 100.2

diagonal:  Solving for rho, Initial residual = 0, Final residual = 0, No Iterations 0
DILUPBiCGStab:  Solving for Ux, Initial residual = 0.00633027, Final residual = 7.58128e-08, No Iterations 1
DILUPBiCGStab:  Solving for Uy, Initial residual = 0.00568291, Final residual = 1.40733e-07, No Iterations 1
DILUPBiCGStab:  Solving for h, Initial residual = 0.000852119, Final residual = 1.77063e-08, No Iterations 1
DICPCG:  Solving for p_rgh, Initial residual = 0.0157651, Final residual = 0.000129086, No Iterations 22
diagonal:  Solving for rho, Initial residual = 0, Final residual = 0, No Iterations 0
time step continuity errors : sum local = 2.35317e-08, global = -4.48656e-11, cumulative = 1.09595e-07
DICPCG:  Solving for p_rgh, Initial residual = 0.000158122, Final residual = 9.84563e-09, No Iterations 30
diagonal:  Solving for rho, Initial residual = 0, Final residual = 0, No Iterations 0
time step continuity errors : sum local = 2.13851e-10, global = 2.13851e-10, cumulative = 1.09809e-07
DILUPBiCGStab:  Solving for epsilon, Initial residual = 0.00118653, Final residual = 4.01981e-08, No Iterations 1
DILUPBiCGStab:  Solving for k, Initial residual = 0.000959691, Final residual = 4.9978e-08, No Iterations 1
ExecutionTime = 0.05 s  ClockTime = 0 s

Courant Number mean: 0.00593307 max: 0.0326085
Time = 100.21

diagonal:  Solving for rho, Initial residual = 0, Final residual = 0, No Iterations 0
DILUPBiCGStab:  Solving for Ux, Initial residual = 0.00646176, Final residual = 7.89199e-08, No Iterations 1
DILUPBiCGStab:  Solving for Uy, Initial residual = 0.0058329, Final residual = 1.38987e-07, No Iterations 1
DILUPBiCGStab:  Solving for h, Initial residual = 0.0005365, Final residual = 1.5244e-08, No Iterations 1
DICPCG:  Solving for p_rgh, Initial residual = 0.0201972, Final residual = 0.000185326, No Iterations 21
diagonal:  Solving for rho, Initial residual = 0, Final residual = 0, No Iterations 0
time step continuity errors : sum local = 3.42699e-08, global = 2.6517e-10, cumulative = 1.10074e-07
DICPCG:  Solving for p_rgh, Initial residual = 0.000286623, Final residual = 9.10499e-09, No Iterations 31
diagonal:  Solving for rho, Initial residual = 0, Final residual = 0, No Iterations 0
time step continuity errors : sum local = 3.38696e-10, global = -3.3827e-10, cumulative = 1.09735e-07
DILUPBiCGStab:  Solving for epsilon, Initial residual = 0.00121276, Final residual = 4.07708e-08, No Iterations 1
DILUPBiCGStab:  Solving for k, Initial residual = 0.000982262, Final residual = 5.15434e-08, No Iterations 1
ExecutionTime = 0.06 s  ClockTime = 0 s

Courant Number mean: 0.00595869 max: 0.0339066
Time = 100.22

diagonal:  Solving for rho, Initial residual = 0, Final residual = 0, No Iterations 0
DILUPBiCGStab:  Solving for Ux, Initial residual = 0.00564431, Final residual = 7.08736e-08, No Iterations 1
DILUPBiCGStab:  Solving for Uy, Initial residual = 0.00507619, Final residual = 1.17721e-07, No Iterations 1
DILUPBiCGStab:  Solving for h, Initial residual = 0.000375948, Final residual = 1.40587e-08, No Iterations 1
DICPCG:  Solving for p_rgh, Initial residual = 0.038439, Final residual = 0.000362721, No Iterations 19
diagonal:  Solving for rho, Initial residual = 0, Final residual = 0, No Iterations 0
time step continuity errors : sum local = 6.25963e-08, global = -1.06847e-10, cumulative = 1.09629e-07
DICPCG:  Solving for p_rgh, Initial residual = 0.000596292, Final residual = 6.94433e-09, No Iterations 32
diagonal:  Solving for rho, Initial residual = 0, Final residual = 0, No Iterations 0
time step continuity errors : sum local = 7.63689e-10, global = -7.63689e-10, cumulative = 1.08865e-07
DILUPBiCGStab:  Solving for epsilon, Initial residual = 0.00123584, Final residual = 4.11918e-08, No Iterations 1
DILUPBiCGStab:  Solving for k, Initial residual = 0.00100331, Final residual = 5.3119e-08, No Iterations 1
ExecutionTime = 0.06 s  ClockTime = 0 s

Courant Number mean: 0.00597766 max: 0.0348247
Time = 100.23

diagonal:  Solving for rho, Initial residual = 0, Final residual = 0, No Iterations 0
DILUPBiCGStab:  Solving for Ux, Initial residual = 0.00412097, Final residual = 5.57288e-08, No Iterations 1
DILUPBiCGStab:  Solving for Uy, Initial residual = 0.0036689, Final residual = 8.23165e-08, No Iterations 1
DILUPBiCGStab:  Solving for h, Initial residual = 0.000606411, Final residual = 1.58921e-08, No Iterations 1
DICPCG:  Solving for p_rgh, Initial residual = 0.0567433, Final residual = 0.000362286, No Iterations 20
diagonal:  Solving for rho, Initial residual = 0, Final residual = 0, No Iterations 0
time step continuity errors : sum local = 5.48342e-08, global = -1.93794e-10, cumulative = 1.08671e-07
DICPCG:  Solving for p_rgh, Initial residual = 0.000703871, Final residual = 7.53516e-09, No Iterations 32
diagonal:  Solving for rho, Initial residual = 0, Final residual = 0, No Iterations 0
time step continuity errors : sum local = 1.01278e-09, global = -1.01278e-09, cumulative = 1.07658e-07
DILUPBiCGStab:  Solving for epsilon, Initial residual = 0.00125587, Final residual = 4.14701e-08, No Iterations 1
DILUPBiCGStab:  Solving for k, Initial residual = 0.00101881, Final residual = 5.44443e-08, No Iterations 1
ExecutionTime = 0.06 s  ClockTime = 0 s

Courant Number mean: 0.00598765 max: 0.0352742
Time = 100.24

diagonal:  Solving for rho, Initial residual = 0, Final residual = 0, No Iterations 0
DILUPBiCGStab:  Solving for Ux, Initial residual = 0.00222522, Final residual = 3.94663e-08, No Iterations 1
DILUPBiCGStab:  Solving for Uy, Initial residual = 0.00197052, Final residual = 4.44356e-08, No Iterations 1
DILUPBiCGStab:  Solving for h, Initial residual = 0.000745673, Final residual = 1.6915e-08, No Iterations 1
DICPCG:  Solving for p_rgh, Initial residual = 0.0744746, Final residual = 0.000544868, No Iterations 20
diagonal:  Solving for rho, Initial residual = 0, Final residual = 0, No Iterations 0
time step continuity errors : sum local = 6.80872e-08, global = -5.11531e-10, cumulative = 1.07147e-07
DICPCG:  Solving for p_rgh, Initial residual = 0.00102304, Final residual = 4.50277e-09, No Iterations 33
diagonal:  Solving for rho, Initial residual = 0, Final residual = 0, No Iterations 0
time step continuity errors : sum local = 1.07021e-09, global = -1.07021e-09, cumulative = 1.06077e-07
DILUPBiCGStab:  Solving for epsilon, Initial residual = 0.00127163, Final residual = 4.16184e-08, No Iterations 1
DILUPBiCGStab:  Solving for k, Initial residual = 0.00102924, Final residual = 5.54462e-08, No Iterations 1
ExecutionTime = 0.06 s  ClockTime = 0 s

Courant Number mean: 0.00598836 max: 0.0352514
Time = 100.25

diagonal:  Solving for rho, Initial residual = 0, Final residual = 0, No Iterations 0
DILUPBiCGStab:  Solving for Ux, Initial residual = 0.000815276, Final residual = 2.4371e-08, No Iterations 1
DILUPBiCGStab:  Solving for Uy, Initial residual = 0.000874857, Final residual = 2.23922e-08, No Iterations 1
DILUPBiCGStab:  Solving for h, Initial residual = 0.000777407, Final residual = 1.70048e-08, No Iterations 1
DICPCG:  Solving for p_rgh, Initial residual = 0.0877413, Final residual = 0.000751849, No Iterations 20
diagonal:  Solving for rho, Initial residual = 0, Final residual = 0, No Iterations 0
time step continuity errors : sum local = 7.30594e-08, global = -5.841e-10, cumulative = 1.05493e-07
DICPCG:  Solving for p_rgh, Initial residual = 0.00130941, Final residual = 9.20875e-09, No Iterations 33
diagonal:  Solving for rho, Initial residual = 0, Final residual = 0, No Iterations 0
time step continuity errors : sum local = 9.52542e-10, global = -9.52542e-10, cumulative = 1.0454e-07
DILUPBiCGStab:  Solving for epsilon, Initial residual = 0.00128428, Final residual = 4.16513e-08, No Iterations 1
DILUPBiCGStab:  Solving for k, Initial residual = 0.00103479, Final residual = 5.60956e-08, No Iterations 1
ExecutionTime = 0.06 s  ClockTime = 0 s

Courant Number mean: 0.00598118 max: 0.0348264
Time = 100.26

diagonal:  Solving for rho, Initial residual = 0, Final residual = 0, No Iterations 0
DILUPBiCGStab:  Solving for Ux, Initial residual = 0.00217256, Final residual = 3.49075e-08, No Iterations 1
DILUPBiCGStab:  Solving for Uy, Initial residual = 0.00185429, Final residual = 3.25863e-08, No Iterations 1
DILUPBiCGStab:  Solving for h, Initial residual = 0.000710787, Final residual = 1.62777e-08, No Iterations 1
DICPCG:  Solving for p_rgh, Initial residual = 0.0892492, Final residual = 0.000667167, No Iterations 16
diagonal:  Solving for rho, Initial residual = 0, Final residual = 0, No Iterations 0
time step continuity errors : sum local = 4.91653e-08, global = -1.11211e-09, cumulative = 1.03428e-07
DICPCG:  Solving for p_rgh, Initial residual = 0.000696369, Final residual = 8.77587e-09, No Iterations 33
diagonal:  Solving for rho, Initial residual = 0, Final residual = 0, No Iterations 0
time step continuity errors : sum local = 7.01343e-10, global = -7.01343e-10, cumulative = 1.02727e-07
DILUPBiCGStab:  Solving for epsilon, Initial residual = 0.0012943, Final residual = 4.15889e-08, No Iterations 1
DILUPBiCGStab:  Solving for k, Initial residual = 0.0010368, Final residual = 5.64231e-08, No Iterations 1
ExecutionTime = 0.07 s  ClockTime = 0 s

Courant Number mean: 0.00596863 max: 0.0341224
Time = 100.27

diagonal:  Solving for rho, Initial residual = 0, Final residual = 0, No Iterations 0
DILUPBiCGStab:  Solving for Ux, Initial residual = 0.003248, Final residual = 3.85516e-08, No Iterations 1
DILUPBiCGStab:  Solving for Uy, Initial residual = 0.00279758, Final residual = 5.48423e-08, No Iterations 1
DILUPBiCGStab:  Solving for h, Initial residual = 0.000569362, Final residual = 1.49433e-08, No Iterations 1
DICPCG:  Solving for p_rgh, Initial residual = 0.0431704, Final residual = 0.000340456, No Iterations 21
diagonal:  Solving for rho, Initial residual = 0, Final residual = 0, No Iterations 0
time step continuity errors : sum local = 3.01722e-08, global = 5.69506e-10, cumulative = 1.03296e-07
DICPCG:  Solving for p_rgh, Initial residual = 0.000362702, Final residual = 6.98247e-09, No Iterations 32
diagonal:  Solving for rho, Initial residual = 0, Final residual = 0, No Iterations 0
time step continuity errors : sum local = 3.73214e-10, global = -3.73214e-10, cumulative = 1.02923e-07
DILUPBiCGStab:  Solving for epsilon, Initial residual = 0.00130235, Final residual = 4.14515e-08, No Iterations 1
DILUPBiCGStab:  Solving for k, Initial residual = 0.00103676, Final residual = 5.64882e-08, No Iterations 1
ExecutionTime = 0.07 s  ClockTime = 0 s

Courant Number mean: 0.00595357 max: 0.0332892
Time = 100.28

diagonal:  Solving for rho, Initial residual = 0, Final residual = 0, No Iterations 0
DILUPBiCGStab:  Solving for Ux, Initial residual = 0.00374095, Final residual = 4.03897e-08, No Iterations 1
DILUPBiCGStab:  Solving for Uy, Initial residual = 0.00325665, Final residual = 6.41691e-08, No Iterations 1
DILUPBiCGStab:  Solving for h, Initial residual = 0.000389319, Final residual = 1.33318e-08, No Iterations 1
DICPCG:  Solving for p_rgh, Initial residual = 0.00874527, Final residual = 5.9041e-05, No Iterations 23
diagonal:  Solving for rho, Initial residual = 0, Final residual = 0, No Iterations 0
time step continuity errors : sum local = 5.86659e-09, global = 2.91151e-10, cumulative = 1.03214e-07
DICPCG:  Solving for p_rgh, Initial residual = 0.00011609, Final residual = 8.06728e-09, No Iterations 30
diagonal:  Solving for rho, Initial residual = 0, Final residual = 0, No Iterations 0
time step continuity errors : sum local = 2.95089e-11, global = -2.95025e-11, cumulative = 1.03184e-07
DILUPBiCGStab:  Solving for epsilon, Initial residual = 0.00130908, Final residual = 4.12645e-08, No Iterations 1
DILUPBiCGStab:  Solving for k, Initial residual = 0.00103686, Final residual = 5.64493e-08, No Iterations 1
ExecutionTime = 0.07 s  ClockTime = 0 s

Courant Number mean: 0.00593916 max: 0.032477
Time = 100.29

diagonal:  Solving for rho, Initial residual = 0, Final residual = 0, No Iterations 0
DILUPBiCGStab:  Solving for Ux, Initial residual = 0.0036374, Final residual = 3.91872e-08, No Iterations 1
DILUPBiCGStab:  Solving for Uy, Initial residual = 0.0031988, Final residual = 6.17357e-08, No Iterations 1
DILUPBiCGStab:  Solving for h, Initial residual = 0.000414874, Final residual = 1.32209e-08, No Iterations 1
DICPCG:  Solving for p_rgh, Initial residual = 0.0274921, Final residual = 0.00026607, No Iterations 18
diagonal:  Solving for rho, Initial residual = 0, Final residual = 0, No Iterations 0
time step continuity errors : sum local = 2.6193e-08, global = 1.04387e-10, cumulative = 1.03289e-07
DICPCG:  Solving for p_rgh, Initial residual = 0.000406013, Final residual = 5.13152e-09, No Iterations 32
diagonal:  Solving for rho, Initial residual = 0, Final residual = 0, No Iterations 0
time step continuity errors : sum local = 2.74508e-10, global = 2.74429e-10, cumulative = 1.03563e-07
DILUPBiCGStab:  Solving for epsilon, Initial residual = 0.00131505, Final residual = 4.10353e-08, No Iterations 1
DILUPBiCGStab:  Solving for k, Initial residual = 0.00103792, Final residual = 5.64167e-08, No Iterations 1
ExecutionTime = 0.07 s  ClockTime = 0 s

Courant Number mean: 0.00592789 max: 0.0318124
Time = 100.3

diagonal:  Solving for rho, Initial residual = 0, Final residual = 0, No Iterations 0
DILUPBiCGStab:  Solving for Ux, Initial residual = 0.00303255, Final residual = 3.5791e-08, No Iterations 1
DILUPBiCGStab:  Solving for Uy, Initial residual = 0.00269583, Final residual = 5.02766e-08, No Iterations 1
DILUPBiCGStab:  Solving for h, Initial residual = 0.000571524, Final residual = 1.39947e-08, No Iterations 1
DICPCG:  Solving for p_rgh, Initial residual = 0.0459489, Final residual = 0.000282886, No Iterations 20
diagonal:  Solving for rho, Initial residual = 0, Final residual = 0, No Iterations 0
time step continuity errors : sum local = 2.57221e-08, global = 6.78015e-12, cumulative = 1.0357e-07
DICPCG:  Solving for p_rgh, Initial residual = 0.000557135, Final residual = 8.98005e-09, No Iterations 31
diagonal:  Solving for rho, Initial residual = 0, Final residual = 0, No Iterations 0
time step continuity errors : sum local = 4.96518e-10, global = 4.96518e-10, cumulative = 1.04067e-07
DILUPBiCGStab:  Solving for epsilon, Initial residual = 0.00132054, Final residual = 4.07768e-08, No Iterations 1
DILUPBiCGStab:  Solving for k, Initial residual = 0.00103873, Final residual = 5.63687e-08, No Iterations 1
ExecutionTime = 0.08 s  ClockTime = 0 s

Courant Number mean: 0.00592094 max: 0.0313825
Time = 100.31

diagonal:  Solving for rho, Initial residual = 0, Final residual = 0, No Iterations 0
DILUPBiCGStab:  Solving for Ux, Initial residual = 0.00210178, Final residual = 3.09695e-08, No Iterations 1
DILUPBiCGStab:  Solving for Uy, Initial residual = 0.00185013, Final residual = 3.27657e-08, No Iterations 1
DILUPBiCGStab:  Solving for h, Initial residual = 0.000687767, Final residual = 1.45424e-08, No Iterations 1
DICPCG:  Solving for p_rgh, Initial residual = 0.0662988, Final residual = 0.000495103, No Iterations 20
diagonal:  Solving for rho, Initial residual = 0, Final residual = 0, No Iterations 0
time step continuity errors : sum local = 3.9163e-08, global = 6.28098e-10, cumulative = 1.04695e-07
DICPCG:  Solving for p_rgh, Initial residual = 0.000668905, Final residual = 9.42597e-09, No Iterations 32
diagonal:  Solving for rho, Initial residual = 0, Final residual = 0, No Iterations 0
time step continuity errors : sum local = 6.13058e-10, global = 6.13058e-10, cumulative = 1.05308e-07
DILUPBiCGStab:  Solving for epsilon, Initial residual = 0.001324, Final residual = 4.04991e-08, No Iterations 1
DILUPBiCGStab:  Solving for k, Initial residual = 0.0010394, Final residual = 5.64062e-08, No Iterations 1
ExecutionTime = 0.08 s  ClockTime = 0 s

Courant Number mean: 0.00591911 max: 0.0312266
Time = 100.32

diagonal:  Solving for rho, Initial residual = 0, Final residual = 0, No Iterations 0
DILUPBiCGStab:  Solving for Ux, Initial residual = 0.0010668, Final residual = 2.41263e-08, No Iterations 1
DILUPBiCGStab:  Solving for Uy, Initial residual = 0.00100685, Final residual = 1.89706e-08, No Iterations 1
DILUPBiCGStab:  Solving for h, Initial residual = 0.000749013, Final residual = 1.47748e-08, No Iterations 1
DICPCG:  Solving for p_rgh, Initial residual = 0.0630761, Final residual = 0.000555667, No Iterations 20
diagonal:  Solving for rho, Initial residual = 0, Final residual = 0, No Iterations 0
time step continuity errors : sum local = 4.82272e-08, global = 7.03834e-10, cumulative = 1.06012e-07
DICPCG:  Solving for p_rgh, Initial residual = 0.00061922, Final residual = 8.14196e-09, No Iterations 32
diagonal:  Solving for rho, Initial residual = 0, Final residual = 0, No Iterations 0
time step continuity errors : sum local = 6.19814e-10, global = 6.19814e-10, cumulative = 1.06631e-07
DILUPBiCGStab:  Solving for epsilon, Initial residual = 0.0013254, Final residual = 4.01711e-08, No Iterations 1
DILUPBiCGStab:  Solving for k, Initial residual = 0.00103972, Final residual = 5.65134e-08, No Iterations 1
ExecutionTime = 0.08 s  ClockTime = 0 s

Courant Number mean: 0.00592204 max: 0.031336
Time = 100.33

diagonal:  Solving for rho, Initial residual = 0, Final residual = 0, No Iterations 0
DILUPBiCGStab:  Solving for Ux, Initial residual = 0.000832709, Final residual = 2.1857e-08, No Iterations 1
DILUPBiCGStab:  Solving for Uy, Initial residual = 0.000757349, Final residual = 1.96642e-08, No Iterations 1
DILUPBiCGStab:  Solving for h, Initial residual = 0.000752461, Final residual = 1.46662e-08, No Iterations 1
DICPCG:  Solving for p_rgh, Initial residual = 0.047, Final residual = 0.000414802, No Iterations 20
diagonal:  Solving for rho, Initial residual = 0, Final residual = 0, No Iterations 0
time step continuity errors : sum local = 4.26414e-08, global = 7.55252e-10, cumulative = 1.07387e-07
DICPCG:  Solving for p_rgh, Initial residual = 0.000462564, Final residual = 7.32264e-09, No Iterations 32
diagonal:  Solving for rho, Initial residual = 0, Final residual = 0, No Iterations 0
time step continuity errors : sum local = 5.30096e-10, global = 5.30096e-10, cumulative = 1.07917e-07
DILUPBiCGStab:  Solving for epsilon, Initial residual = 0.00132666, Final residual = 3.98242e-08, No Iterations 1
DILUPBiCGStab:  Solving for k, Initial residual = 0.00103987, Final residual = 5.66977e-08, No Iterations 1
ExecutionTime = 0.08 s  ClockTime = 0 s

Courant Number mean: 0.00592901 max: 0.031662
Time = 100.34

diagonal:  Solving for rho, Initial residual = 0, Final residual = 0, No Iterations 0
DILUPBiCGStab:  Solving for Ux, Initial residual = 0.00167552, Final residual = 2.91049e-08, No Iterations 1
DILUPBiCGStab:  Solving for Uy, Initial residual = 0.00127147, Final residual = 3.01632e-08, No Iterations 1
DILUPBiCGStab:  Solving for h, Initial residual = 0.000705165, Final residual = 1.42687e-08, No Iterations 1
DICPCG:  Solving for p_rgh, Initial residual = 0.0305252, Final residual = 0.000240444, No Iterations 16
diagonal:  Solving for rho, Initial residual = 0, Final residual = 0, No Iterations 0
time step continuity errors : sum local = 2.76673e-08, global = -7.60398e-10, cumulative = 1.07156e-07
DICPCG:  Solving for p_rgh, Initial residual = 0.000275162, Final residual = 6.40174e-09, No Iterations 32
diagonal:  Solving for rho, Initial residual = 0, Final residual = 0, No Iterations 0
time step continuity errors : sum local = 3.70658e-10, global = 3.70658e-10, cumulative = 1.07527e-07
DILUPBiCGStab:  Solving for epsilon, Initial residual = 0.00132715, Final residual = 3.94508e-08, No Iterations 1
DILUPBiCGStab:  Solving for k, Initial residual = 0.00104132, Final residual = 5.69503e-08, No Iterations 1
ExecutionTime = 0.09 s  ClockTime = 0 s

Courant Number mean: 0.00593861 max: 0.0321282
Time = 100.35

diagonal:  Solving for rho, Initial residual = 0, Final residual = 0, No Iterations 0
DILUPBiCGStab:  Solving for Ux, Initial residual = 0.00223561, Final residual = 3.32976e-08, No Iterations 1
DILUPBiCGStab:  Solving for Uy, Initial residual = 0.00176876, Final residual = 4.02805e-08, No Iterations 1
DILUPBiCGStab:  Solving for h, Initial residual = 0.000621311, Final residual = 1.36679e-08, No Iterations 1
DICPCG:  Solving for p_rgh, Initial residual = 0.0151128, Final residual = 0.000150607, No Iterations 21
diagonal:  Solving for rho, Initial residual = 0, Final residual = 0, No Iterations 0
time step continuity errors : sum local = 1.86928e-08, global = 1.06806e-11, cumulative = 1.07538e-07
DICPCG:  Solving for p_rgh, Initial residual = 0.000166671, Final residual = 9.93459e-09, No Iterations 30
diagonal:  Solving for rho, Initial residual = 0, Final residual = 0, No Iterations 0
time step continuity errors : sum local = 1.75229e-10, global = 1.75229e-10, cumulative = 1.07713e-07
DILUPBiCGStab:  Solving for epsilon, Initial residual = 0.00132657, Final residual = 3.90445e-08, No Iterations 1
DILUPBiCGStab:  Solving for k, Initial residual = 0.00104242, Final residual = 5.72563e-08, No Iterations 1
ExecutionTime = 0.09 s  ClockTime = 0 s

Courant Number mean: 0.0059494 max: 0.0326465
Time = 100.36

diagonal:  Solving for rho, Initial residual = 0, Final residual = 0, No Iterations 0
DILUPBiCGStab:  Solving for Ux, Initial residual = 0.00244637, Final residual = 3.46986e-08, No Iterations 1
DILUPBiCGStab:  Solving for Uy, Initial residual = 0.00200212, Final residual = 4.36744e-08, No Iterations 1
DILUPBiCGStab:  Solving for h, Initial residual = 0.00051885, Final residual = 1.2962e-08, No Iterations 1
DICPCG:  Solving for p_rgh, Initial residual = 0.00489607, Final residual = 2.921e-05, No Iterations 23
diagonal:  Solving for rho, Initial residual = 0, Final residual = 0, No Iterations 0
time step continuity errors : sum local = 3.8867e-09, global = 1.3524e-10, cumulative = 1.07848e-07
DICPCG:  Solving for p_rgh, Initial residual = 6.10581e-05, Final residual = 7.88593e-09, No Iterations 30
diagonal:  Solving for rho, Initial residual = 0, Final residual = 0, No Iterations 0
time step continuity errors : sum local = 2.16577e-11, global = -2.07691e-11, cumulative = 1.07827e-07
DILUPBiCGStab:  Solving for epsilon, Initial residual = 0.00132494, Final residual = 3.86049e-08, No Iterations 1
DILUPBiCGStab:  Solving for k, Initial residual = 0.00104252, Final residual = 5.75945e-08, No Iterations 1
ExecutionTime = 0.09 s  ClockTime = 0 s

Courant Number mean: 0.0059599 max: 0.033132
Time = 100.37

diagonal:  Solving for rho, Initial residual = 0, Final residual = 0, No Iterations 0
DILUPBiCGStab:  Solving for Ux, Initial residual = 0.00231327, Final residual = 3.35481e-08, No Iterations 1
DILUPBiCGStab:  Solving for Uy, Initial residual = 0.00190532, Final residual = 4.00033e-08, No Iterations 1
DILUPBiCGStab:  Solving for h, Initial residual = 0.000418362, Final residual = 1.22617e-08, No Iterations 1
DICPCG:  Solving for p_rgh, Initial residual = 0.014225, Final residual = 0.000141655, No Iterations 18
diagonal:  Solving for rho, Initial residual = 0, Final residual = 0, No Iterations 0
time step continuity errors : sum local = 1.77566e-08, global = 1.71882e-10, cumulative = 1.07999e-07
DICPCG:  Solving for p_rgh, Initial residual = 0.000201601, Final residual = 4.93639e-09, No Iterations 31
diagonal:  Solving for rho, Initial residual = 0, Final residual = 0, No Iterations 0
time step continuity errors : sum local = 1.86913e-10, global = -1.86869e-10, cumulative = 1.07812e-07
DILUPBiCGStab:  Solving for epsilon, Initial residual = 0.00132232, Final residual = 3.81371e-08, No Iterations 1
DILUPBiCGStab:  Solving for k, Initial residual = 0.00104168, Final residual = 5.78165e-08, No Iterations 1
ExecutionTime = 0.09 s  ClockTime = 0 s

Courant Number mean: 0.00596847 max: 0.0335162
Time = 100.38

diagonal:  Solving for rho, Initial residual = 0, Final residual = 0, No Iterations 0
DILUPBiCGStab:  Solving for Ux, Initial residual = 0.00190162, Final residual = 3.01569e-08, No Iterations 1
DILUPBiCGStab:  Solving for Uy, Initial residual = 0.00153983, Final residual = 3.16469e-08, No Iterations 1
DILUPBiCGStab:  Solving for h, Initial residual = 0.000350936, Final residual = 1.18154e-08, No Iterations 1
DICPCG:  Solving for p_rgh, Initial residual = 0.0219704, Final residual = 0.000157525, No Iterations 20
diagonal:  Solving for rho, Initial residual = 0, Final residual = 0, No Iterations 0
time step continuity errors : sum local = 1.87889e-08, global = 2.00849e-10, cumulative = 1.08013e-07
DICPCG:  Solving for p_rgh, Initial residual = 0.000256829, Final residual = 6.21008e-09, No Iterations 31
diagonal:  Solving for rho, Initial residual = 0, Final residual = 0, No Iterations 0
time step continuity errors : sum local = 3.011e-10, global = -3.011e-10, cumulative = 1.07712e-07
DILUPBiCGStab:  Solving for epsilon, Initial residual = 0.00131856, Final residual = 3.76468e-08, No Iterations 1
DILUPBiCGStab:  Solving for k, Initial residual = 0.00104283, Final residual = 5.78758e-08, No Iterations 1
ExecutionTime = 0.09 s  ClockTime = 0 s

Courant Number mean: 0.00597424 max: 0.0337553
Time = 100.39

diagonal:  Solving for rho, Initial residual = 0, Final residual = 0, No Iterations 0
DILUPBiCGStab:  Solving for Ux, Initial residual = 0.00132278, Final residual = 2.49276e-08, No Iterations 1
DILUPBiCGStab:  Solving for Uy, Initial residual = 0.00105337, Final residual = 2.3109e-08, No Iterations 1
DILUPBiCGStab:  Solving for h, Initial residual = 0.000358545, Final residual = 1.17954e-08, No Iterations 1
DICPCG:  Solving for p_rgh, Initial residual = 0.0276754, Final residual = 0.000184288, No Iterations 20
diagonal:  Solving for rho, Initial residual = 0, Final residual = 0, No Iterations 0
time step continuity errors : sum local = 2.04152e-08, global = 1.9074e-11, cumulative = 1.07731e-07
DICPCG:  Solving for p_rgh, Initial residual = 0.000296883, Final residual = 4.8751e-09, No Iterations 31
diagonal:  Solving for rho, Initial residual = 0, Final residual = 0, No Iterations 0
time step continuity errors : sum local = 3.52605e-10, global = -3.52605e-10, cumulative = 1.07379e-07
DILUPBiCGStab:  Solving for epsilon, Initial residual = 0.00131376, Final residual = 3.71382e-08, No Iterations 1
DILUPBiCGStab:  Solving for k, Initial residual = 0.00104288, Final residual = 5.77476e-08, No Iterations 1
ExecutionTime = 0.09 s  ClockTime = 0 s

Courant Number mean: 0.00597691 max: 0.0338339
Time = 100.4

diagonal:  Solving for rho, Initial residual = 0, Final residual = 0, No Iterations 0
DILUPBiCGStab:  Solving for Ux, Initial residual = 0.000713986, Final residual = 1.88393e-08, No Iterations 1
DILUPBiCGStab:  Solving for Uy, Initial residual = 0.000665648, Final residual = 1.68786e-08, No Iterations 1
DILUPBiCGStab:  Solving for h, Initial residual = 0.000382745, Final residual = 1.18584e-08, No Iterations 1
DICPCG:  Solving for p_rgh, Initial residual = 0.0300901, Final residual = 0.000219967, No Iterations 20
diagonal:  Solving for rho, Initial residual = 0, Final residual = 0, No Iterations 0
time step continuity errors : sum local = 2.23176e-08, global = -2.35811e-11, cumulative = 1.07355e-07
DICPCG:  Solving for p_rgh, Initial residual = 0.000333211, Final residual = 4.43598e-09, No Iterations 32
diagonal:  Solving for rho, Initial residual = 0, Final residual = 0, No Iterations 0
time step continuity errors : sum local = 3.41695e-10, global = -3.41695e-10, cumulative = 1.07013e-07
DILUPBiCGStab:  Solving for epsilon, Initial residual = 0.00130805, Final residual = 3.66153e-08, No Iterations 1
DILUPBiCGStab:  Solving for k, Initial residual = 0.0010419, Final residual = 5.74321e-08, No Iterations 1
ExecutionTime = 0.1 s  ClockTime = 0 s

Courant Number mean: 0.00597668 max: 0.0337635
Time = 100.41

diagonal:  Solving for rho, Initial residual = 0, Final residual = 0, No Iterations 0
DILUPBiCGStab:  Solving for Ux, Initial residual = 0.000767777, Final residual = 1.8627e-08, No Iterations 1
DILUPBiCGStab:  Solving for Uy, Initial residual = 0.00075344, Final residual = 1.44586e-08, No Iterations 1
DILUPBiCGStab:  Solving for h, Initial residual = 0.000376979, Final residual = 1.16991e-08, No Iterations 1
DICPCG:  Solving for p_rgh, Initial residual = 0.0277786, Final residual = 0.000226244, No Iterations 20
diagonal:  Solving for rho, Initial residual = 0, Final residual = 0, No Iterations 0
time step continuity errors : sum local = 2.09341e-08, global = -3.17591e-11, cumulative = 1.06982e-07
DICPCG:  Solving for p_rgh, Initial residual = 0.000312228, Final residual = 4.99579e-09, No Iterations 32
diagonal:  Solving for rho, Initial residual = 0, Final residual = 0, No Iterations 0
time step continuity errors : sum local = 2.78359e-10, global = -2.78359e-10, cumulative = 1.06703e-07
DILUPBiCGStab:  Solving for epsilon, Initial residual = 0.0013016, Final residual = 3.6084e-08, No Iterations 1
DILUPBiCGStab:  Solving for k, Initial residual = 0.00104, Final residual = 5.69531e-08, No Iterations 1
ExecutionTime = 0.1 s  ClockTime = 0 s

Courant Number mean: 0.0059742 max: 0.0335773
Time = 100.42

diagonal:  Solving for rho, Initial residual = 0, Final residual = 0, No Iterations 0
DILUPBiCGStab:  Solving for Ux, Initial residual = 0.00114723, Final residual = 2.29355e-08, No Iterations 1
DILUPBiCGStab:  Solving for Uy, Initial residual = 0.00100432, Final residual = 1.65854e-08, No Iterations 1
DILUPBiCGStab:  Solving for h, Initial residual = 0.000348773, Final residual = 1.1372e-08, No Iterations 1
DICPCG:  Solving for p_rgh, Initial residual = 0.0205909, Final residual = 0.000143443, No Iterations 16
diagonal:  Solving for rho, Initial residual = 0, Final residual = 0, No Iterations 0
time step continuity errors : sum local = 1.25118e-08, global = 6.14534e-10, cumulative = 1.07318e-07
DICPCG:  Solving for p_rgh, Initial residual = 0.000189693, Final residual = 9.20292e-09, No Iterations 31
diagonal:  Solving for rho, Initial residual = 0, Final residual = 0, No Iterations 0
time step continuity errors : sum local = 1.79412e-10, global = -1.79412e-10, cumulative = 1.07138e-07
DILUPBiCGStab:  Solving for epsilon, Initial residual = 0.00129447, Final residual = 3.55463e-08, No Iterations 1
DILUPBiCGStab:  Solving for k, Initial residual = 0.00103732, Final residual = 5.63547e-08, No Iterations 1
ExecutionTime = 0.1 s  ClockTime = 0 s

Courant Number mean: 0.00597037 max: 0.0333219
Time = 100.43

diagonal:  Solving for rho, Initial residual = 0, Final residual = 0, No Iterations 0
DILUPBiCGStab:  Solving for Ux, Initial residual = 0.00138664, Final residual = 2.45875e-08, No Iterations 1
DILUPBiCGStab:  Solving for Uy, Initial residual = 0.00118489, Final residual = 2.0904e-08, No Iterations 1
DILUPBiCGStab:  Solving for h, Initial residual = 0.000353007, Final residual = 1.12295e-08, No Iterations 1
DICPCG:  Solving for p_rgh, Initial residual = 0.00973913, Final residual = 8.87687e-05, No Iterations 21
diagonal:  Solving for rho, Initial residual = 0, Final residual = 0, No Iterations 0
time step continuity errors : sum local = 7.43194e-09, global = 2.68255e-10, cumulative = 1.07407e-07
DICPCG:  Solving for p_rgh, Initial residual = 0.000116113, Final residual = 9.05759e-09, No Iterations 30
diagonal:  Solving for rho, Initial residual = 0, Final residual = 0, No Iterations 0
time step continuity errors : sum local = 6.49054e-11, global = -6.49054e-11, cumulative = 1.07342e-07
DILUPBiCGStab:  Solving for epsilon, Initial residual = 0.00128676, Final residual = 3.50038e-08, No Iterations 1
DILUPBiCGStab:  Solving for k, Initial residual = 0.00103402, Final residual = 5.56912e-08, No Iterations 1
ExecutionTime = 0.1 s  ClockTime = 0 s

Courant Number mean: 0.00596619 max: 0.0330486
Time = 100.44

diagonal:  Solving for rho, Initial residual = 0, Final residual = 0, No Iterations 0
DILUPBiCGStab:  Solving for Ux, Initial residual = 0.00144043, Final residual = 2.44629e-08, No Iterations 1
DILUPBiCGStab:  Solving for Uy, Initial residual = 0.00122655, Final residual = 2.1905e-08, No Iterations 1
DILUPBiCGStab:  Solving for h, Initial residual = 0.000398126, Final residual = 1.13614e-08, No Iterations 1
DICPCG:  Solving for p_rgh, Initial residual = 0.00750842, Final residual = 6.42009e-05, No Iterations 21
diagonal:  Solving for rho, Initial residual = 0, Final residual = 0, No Iterations 0
time step continuity errors : sum local = 5.32017e-09, global = 1.96007e-10, cumulative = 1.07538e-07
DICPCG:  Solving for p_rgh, Initial residual = 9.89666e-05, Final residual = 6.75191e-09, No Iterations 28
diagonal:  Solving for rho, Initial residual = 0, Final residual = 0, No Iterations 0
time step continuity errors : sum local = 4.53134e-11, global = 4.51868e-11, cumulative = 1.07583e-07
DILUPBiCGStab:  Solving for epsilon, Initial residual = 0.00127861, Final residual = 3.4457e-08, No Iterations 1
DILUPBiCGStab:  Solving for k, Initial residual = 0.00103026, Final residual = 5.50115e-08, No Iterations 1
ExecutionTime = 0.11 s  ClockTime = 0 s

Courant Number mean: 0.00596256 max: 0.0328043
Time = 100.45

diagonal:  Solving for rho, Initial residual = 0, Final residual = 0, No Iterations 0
DILUPBiCGStab:  Solving for Ux, Initial residual = 0.00132318, Final residual = 2.31867e-08, No Iterations 1
DILUPBiCGStab:  Solving for Uy, Initial residual = 0.00113517, Final residual = 1.98383e-08, No Iterations 1
DILUPBiCGStab:  Solving for h, Initial residual = 0.000451531, Final residual = 1.16358e-08, No Iterations 1
DICPCG:  Solving for p_rgh, Initial residual = 0.0147992, Final residual = 0.000137359, No Iterations 18
diagonal:  Solving for rho, Initial residual = 0, Final residual = 0, No Iterations 0
time step continuity errors : sum local = 1.15069e-08, global = 3.1195e-10, cumulative = 1.07895e-07
DICPCG:  Solving for p_rgh, Initial residual = 0.000182768, Final residual = 5.19346e-09, No Iterations 31
diagonal:  Solving for rho, Initial residual = 0, Final residual = 0, No Iterations 0
time step continuity errors : sum local = 1.34355e-10, global = 1.34355e-10, cumulative = 1.08029e-07
DILUPBiCGStab:  Solving for epsilon, Initial residual = 0.00126996, Final residual = 3.39066e-08, No Iterations 1
DILUPBiCGStab:  Solving for k, Initial residual = 0.00102598, Final residual = 5.43607e-08, No Iterations 1
ExecutionTime = 0.11 s  ClockTime = 0 s

Courant Number mean: 0.0059602 max: 0.0326255
Time = 100.46

diagonal:  Solving for rho, Initial residual = 0, Final residual = 0, No Iterations 0
DILUPBiCGStab:  Solving for Ux, Initial residual = 0.00107655, Final residual = 2.06314e-08, No Iterations 1
DILUPBiCGStab:  Solving for Uy, Initial residual = 0.00094687, Final residual = 1.57734e-08, No Iterations 1
DILUPBiCGStab:  Solving for h, Initial residual = 0.000497457, Final residual = 1.18939e-08, No Iterations 1
DICPCG:  Solving for p_rgh, Initial residual = 0.0187814, Final residual = 0.000145577, No Iterations 20
diagonal:  Solving for rho, Initial residual = 0, Final residual = 0, No Iterations 0
time step continuity errors : sum local = 1.27456e-08, global = 3.93243e-10, cumulative = 1.08422e-07
DICPCG:  Solving for p_rgh, Initial residual = 0.000200873, Final residual = 6.88132e-09, No Iterations 31
diagonal:  Solving for rho, Initial residual = 0, Final residual = 0, No Iterations 0
time step continuity errors : sum local = 1.9148e-10, global = 1.9148e-10, cumulative = 1.08614e-07
DILUPBiCGStab:  Solving for epsilon, Initial residual = 0.00126079, Final residual = 3.3355e-08, No Iterations 1
DILUPBiCGStab:  Solving for k, Initial residual = 0.0010212, Final residual = 5.37664e-08, No Iterations 1
ExecutionTime = 0.11 s  ClockTime = 0 s

Courant Number mean: 0.00595951 max: 0.0325334
Time = 100.47

diagonal:  Solving for rho, Initial residual = 0, Final residual = 0, No Iterations 0
DILUPBiCGStab:  Solving for Ux, Initial residual = 0.000760716, Final residual = 1.67823e-08, No Iterations 1
DILUPBiCGStab:  Solving for Uy, Initial residual = 0.000731356, Final residual = 1.25735e-08, No Iterations 1
DILUPBiCGStab:  Solving for h, Initial residual = 0.000526811, Final residual = 1.20468e-08, No Iterations 1
DICPCG:  Solving for p_rgh, Initial residual = 0.0202102, Final residual = 0.000182376, No Iterations 20
diagonal:  Solving for rho, Initial residual = 0, Final residual = 0, No Iterations 0
time step continuity errors : sum local = 1.68347e-08, global = 4.14857e-10, cumulative = 1.09029e-07
DICPCG:  Solving for p_rgh, Initial residual = 0.000224271, Final residual = 8.95594e-09, No Iterations 30
diagonal:  Solving for rho, Initial residual = 0, Final residual = 0, No Iterations 0
time step continuity errors : sum local = 2.11859e-10, global = 2.11859e-10, cumulative = 1.09241e-07
DILUPBiCGStab:  Solving for epsilon, Initial residual = 0.00125112, Final residual = 3.28026e-08, No Iterations 1
DILUPBiCGStab:  Solving for k, Initial residual = 0.00101596, Final residual = 5.32388e-08, No Iterations 1
ExecutionTime = 0.11 s  ClockTime = 0 s

Courant Number mean: 0.00596058 max: 0.0325329
Time = 100.48

diagonal:  Solving for rho, Initial residual = 0, Final residual = 0, No Iterations 0
DILUPBiCGStab:  Solving for Ux, Initial residual = 0.000470966, Final residual = 1.32272e-08, No Iterations 1
DILUPBiCGStab:  Solving for Uy, Initial residual = 0.00056329, Final residual = 1.1817e-08, No Iterations 1
DILUPBiCGStab:  Solving for h, Initial residual = 0.000537066, Final residual = 1.20704e-08, No Iterations 1
DICPCG:  Solving for p_rgh, Initial residual = 0.0182674, Final residual = 0.000171997, No Iterations 20
diagonal:  Solving for rho, Initial residual = 0, Final residual = 0, No Iterations 0
time step continuity errors : sum local = 1.68083e-08, global = 4.21427e-10, cumulative = 1.09662e-07
DICPCG:  Solving for p_rgh, Initial residual = 0.000203017, Final residual = 7.21443e-09, No Iterations 31
diagonal:  Solving for rho, Initial residual = 0, Final residual = 0, No Iterations 0
time step continuity errors : sum local = 1.97215e-10, global = 1.97215e-10, cumulative = 1.09859e-07
DILUPBiCGStab:  Solving for epsilon, Initial residual = 0.00124094, Final residual = 3.22469e-08, No Iterations 1
DILUPBiCGStab:  Solving for k, Initial residual = 0.00101029, Final residual = 5.2773e-08, No Iterations 1
ExecutionTime = 0.11 s  ClockTime = 0 s

Courant Number mean: 0.00596324 max: 0.0326141
Time = 100.49

diagonal:  Solving for rho, Initial residual = 0, Final residual = 0, No Iterations 0
DILUPBiCGStab:  Solving for Ux, Initial residual = 0.000670604, Final residual = 1.53411e-08, No Iterations 1
DILUPBiCGStab:  Solving for Uy, Initial residual = 0.000580648, Final residual = 1.37337e-08, No Iterations 1
DILUPBiCGStab:  Solving for h, Initial residual = 0.000529039, Final residual = 1.19595e-08, No Iterations 1
DICPCG:  Solving for p_rgh, Initial residual = 0.0141399, Final residual = 0.00011232, No Iterations 16
diagonal:  Solving for rho, Initial residual = 0, Final residual = 0, No Iterations 0
time step continuity errors : sum local = 1.15174e-08, global = 3.48932e-10, cumulative = 1.10208e-07
DICPCG:  Solving for p_rgh, Initial residual = 0.000137964, Final residual = 6.65626e-09, No Iterations 31
diagonal:  Solving for rho, Initial residual = 0, Final residual = 0, No Iterations 0
time step continuity errors : sum local = 1.5442e-10, global = 1.5442e-10, cumulative = 1.10363e-07
DILUPBiCGStab:  Solving for epsilon, Initial residual = 0.00123059, Final residual = 3.16885e-08, No Iterations 1
DILUPBiCGStab:  Solving for k, Initial residual = 0.00100446, Final residual = 5.23496e-08, No Iterations 1
ExecutionTime = 0.12 s  ClockTime = 0 s

Courant Number mean: 0.00596706 max: 0.0327554
Time = 100.5

diagonal:  Solving for rho, Initial residual = 0, Final residual = 0, No Iterations 0
DILUPBiCGStab:  Solving for Ux, Initial residual = 0.000886758, Final residual = 1.70241e-08, No Iterations 1
DILUPBiCGStab:  Solving for Uy, Initial residual = 0.00067544, Final residual = 1.53153e-08, No Iterations 1
DILUPBiCGStab:  Solving for h, Initial residual = 0.000506354, Final residual = 1.17249e-08, No Iterations 1
DICPCG:  Solving for p_rgh, Initial residual = 0.00892628, Final residual = 7.82733e-05, No Iterations 21
diagonal:  Solving for rho, Initial residual = 0, Final residual = 0, No Iterations 0
time step continuity errors : sum local = 8.31967e-09, global = 8.38992e-11, cumulative = 1.10447e-07
DICPCG:  Solving for p_rgh, Initial residual = 8.88559e-05, Final residual = 6.10694e-09, No Iterations 29
diagonal:  Solving for rho, Initial residual = 0, Final residual = 0, No Iterations 0
time step continuity errors : sum local = 9.37506e-11, global = 9.37506e-11, cumulative = 1.1054e-07
DILUPBiCGStab:  Solving for epsilon, Initial residual = 0.00122014, Final residual = 3.11292e-08, No Iterations 1
DILUPBiCGStab:  Solving for k, Initial residual = 0.000998506, Final residual = 5.19402e-08, No Iterations 1
ExecutionTime = 0.12 s  ClockTime = 0 s

Courant Number mean: 0.00597151 max: 0.032929
Time = 100.51

diagonal:  Solving for rho, Initial residual = 0, Final residual = 0, No Iterations 0
DILUPBiCGStab:  Solving for Ux, Initial residual = 0.00100769, Final residual = 1.79509e-08, No Iterations 1
DILUPBiCGStab:  Solving for Uy, Initial residual = 0.000758237, Final residual = 1.63967e-08, No Iterations 1
DILUPBiCGStab:  Solving for h, Initial residual = 0.000474412, Final residual = 1.13915e-08, No Iterations 1
DICPCG:  Solving for p_rgh, Initial residual = 0.00349701, Final residual = 3.01436e-05, No Iterations 22
diagonal:  Solving for rho, Initial residual = 0, Final residual = 0, No Iterations 0
time step continuity errors : sum local = 3.40123e-09, global = 1.7137e-10, cumulative = 1.10712e-07
DICPCG:  Solving for p_rgh, Initial residual = 4.26352e-05, Final residual = 5.78793e-09, No Iterations 29
diagonal:  Solving for rho, Initial residual = 0, Final residual = 0, No Iterations 0
time step continuity errors : sum local = 2.70538e-11, global = 2.70538e-11, cumulative = 1.10739e-07
DILUPBiCGStab:  Solving for epsilon, Initial residual = 0.00120931, Final residual = 3.0572e-08, No Iterations 1
DILUPBiCGStab:  Solving for k, Initial residual = 0.000992438, Final residual = 5.1515e-08, No Iterations 1
ExecutionTime = 0.12 s  ClockTime = 0 s

Courant Number mean: 0.00597602 max: 0.0331052
Time = 100.52

diagonal:  Solving for rho, Initial residual = 0, Final residual = 0, No Iterations 0
DILUPBiCGStab:  Solving for Ux, Initial residual = 0.00101462, Final residual = 1.77856e-08, No Iterations 1
DILUPBiCGStab:  Solving for Uy, Initial residual = 0.000774609, Final residual = 1.6476e-08, No Iterations 1
DILUPBiCGStab:  Solving for h, Initial residual = 0.000439525, Final residual = 1.10156e-08, No Iterations 1
DICPCG:  Solving for p_rgh, Initial residual = 0.00395389, Final residual = 2.64515e-05, No Iterations 22
diagonal:  Solving for rho, Initial residual = 0, Final residual = 0, No Iterations 0
time step continuity errors : sum local = 3.0546e-09, global = 2.04929e-10, cumulative = 1.10944e-07
DICPCG:  Solving for p_rgh, Initial residual = 4.61717e-05, Final residual = 6.97123e-09, No Iterations 29
diagonal:  Solving for rho, Initial residual = 0, Final residual = 0, No Iterations 0
time step continuity errors : sum local = 3.45487e-11, global = -3.45131e-11, cumulative = 1.10909e-07
DILUPBiCGStab:  Solving for epsilon, Initial residual = 0.00119815, Final residual = 3.00174e-08, No Iterations 1
DILUPBiCGStab:  Solving for k, Initial residual = 0.000986369, Final residual = 5.10463e-08, No Iterations 1
ExecutionTime = 0.12 s  ClockTime = 0 s

Courant Number mean: 0.0059801 max: 0.0332583
Time = 100.53

diagonal:  Solving for rho, Initial residual = 0, Final residual = 0, No Iterations 0
DILUPBiCGStab:  Solving for Ux, Initial residual = 0.000920592, Final residual = 1.66786e-08, No Iterations 1
DILUPBiCGStab:  Solving for Uy, Initial residual = 0.000717837, Final residual = 1.54764e-08, No Iterations 1
DILUPBiCGStab:  Solving for h, Initial residual = 0.000409158, Final residual = 1.06669e-08, No Iterations 1
DICPCG:  Solving for p_rgh, Initial residual = 0.00715888, Final residual = 6.91082e-05, No Iterations 18
diagonal:  Solving for rho, Initial residual = 0, Final residual = 0, No Iterations 0
time step continuity errors : sum local = 7.49195e-09, global = 5.45664e-11, cumulative = 1.10964e-07
DICPCG:  Solving for p_rgh, Initial residual = 9.23017e-05, Final residual = 6.67956e-09, No Iterations 30
diagonal:  Solving for rho, Initial residual = 0, Final residual = 0, No Iterations 0
time step continuity errors : sum local = 8.21015e-11, global = -8.21015e-11, cumulative = 1.10882e-07
DILUPBiCGStab:  Solving for epsilon, Initial residual = 0.00118671, Final residual = 2.94679e-08, No Iterations 1
DILUPBiCGStab:  Solving for k, Initial residual = 0.000982397, Final residual = 5.05137e-08, No Iterations 1
ExecutionTime = 0.13 s  ClockTime = 0 s

Courant Number mean: 0.00598337 max: 0.0333691
Time = 100.54

diagonal:  Solving for rho, Initial residual = 0, Final residual = 0, No Iterations 0
DILUPBiCGStab:  Solving for Ux, Initial residual = 0.000757246, Final residual = 1.48635e-08, No Iterations 1
DILUPBiCGStab:  Solving for Uy, Initial residual = 0.0006146, Final residual = 1.36227e-08, No Iterations 1
DILUPBiCGStab:  Solving for h, Initial residual = 0.000387769, Final residual = 1.03976e-08, No Iterations 1
DICPCG:  Solving for p_rgh, Initial residual = 0.00956121, Final residual = 7.6721e-05, No Iterations 20
diagonal:  Solving for rho, Initial residual = 0, Final residual = 0, No Iterations 0
time step continuity errors : sum local = 8.07952e-09, global = 1.59065e-10, cumulative = 1.11041e-07
DICPCG:  Solving for p_rgh, Initial residual = 0.000109692, Final residual = 6.37191e-09, No Iterations 30
diagonal:  Solving for rho, Initial residual = 0, Final residual = 0, No Iterations 0
time step continuity errors : sum local = 1.10175e-10, global = -1.10175e-10, cumulative = 1.1093e-07
DILUPBiCGStab:  Solving for epsilon, Initial residual = 0.00117528, Final residual = 2.89258e-08, No Iterations 1
DILUPBiCGStab:  Solving for k, Initial residual = 0.000978038, Final residual = 4.99069e-08, No Iterations 1
ExecutionTime = 0.13 s  ClockTime = 0 s

Courant Number mean: 0.00598562 max: 0.0334278
Time = 100.55

diagonal:  Solving for rho, Initial residual = 0, Final residual = 0, No Iterations 0
DILUPBiCGStab:  Solving for Ux, Initial residual = 0.000569491, Final residual = 1.29513e-08, No Iterations 1
DILUPBiCGStab:  Solving for Uy, Initial residual = 0.000520418, Final residual = 1.15206e-08, No Iterations 1
DILUPBiCGStab:  Solving for h, Initial residual = 0.000375918, Final residual = 1.02663e-08, No Iterations 1
DICPCG:  Solving for p_rgh, Initial residual = 0.0106446, Final residual = 8.50712e-05, No Iterations 20
diagonal:  Solving for rho, Initial residual = 0, Final residual = 0, No Iterations 0
time step continuity errors : sum local = 8.60679e-09, global = 1.12752e-10, cumulative = 1.11043e-07
DICPCG:  Solving for p_rgh, Initial residual = 0.000116134, Final residual = 8.43317e-09, No Iterations 30
diagonal:  Solving for rho, Initial residual = 0, Final residual = 0, No Iterations 0
time step continuity errors : sum local = 1.16947e-10, global = -1.16947e-10, cumulative = 1.10926e-07
DILUPBiCGStab:  Solving for epsilon, Initial residual = 0.00116378, Final residual = 2.83909e-08, No Iterations 1
DILUPBiCGStab:  Solving for k, Initial residual = 0.000973308, Final residual = 4.92265e-08, No Iterations 1
ExecutionTime = 0.13 s  ClockTime = 0 s

Courant Number mean: 0.00598686 max: 0.0334338
Time = 100.56

diagonal:  Solving for rho, Initial residual = 0, Final residual = 0, No Iterations 0
DILUPBiCGStab:  Solving for Ux, Initial residual = 0.000425935, Final residual = 1.12675e-08, No Iterations 1
DILUPBiCGStab:  Solving for Uy, Initial residual = 0.00050417, Final residual = 9.7968e-09, No Iterations 1
DILUPBiCGStab:  Solving for h, Initial residual = 0.000372902, Final residual = 1.02076e-08, No Iterations 1
DICPCG:  Solving for p_rgh, Initial residual = 0.0101309, Final residual = 8.37762e-05, No Iterations 20
diagonal:  Solving for rho, Initial residual = 0, Final residual = 0, No Iterations 0
time step continuity errors : sum local = 8.22713e-09, global = 1.16204e-10, cumulative = 1.11042e-07
DICPCG:  Solving for p_rgh, Initial residual = 0.000108752, Final residual = 9.21743e-09, No Iterations 30
diagonal:  Solving for rho, Initial residual = 0, Final residual = 0, No Iterations 0
time step continuity errors : sum local = 1.04225e-10, global = -1.04225e-10, cumulative = 1.10938e-07
DILUPBiCGStab:  Solving for epsilon, Initial residual = 0.00115211, Final residual = 2.78638e-08, No Iterations 1
DILUPBiCGStab:  Solving for k, Initial residual = 0.000968235, Final residual = 4.84822e-08, No Iterations 1
ExecutionTime = 0.13 s  ClockTime = 0 s

Courant Number mean: 0.00598721 max: 0.0333947
Time = 100.57

diagonal:  Solving for rho, Initial residual = 0, Final residual = 0, No Iterations 0
DILUPBiCGStab:  Solving for Ux, Initial residual = 0.00053669, Final residual = 1.23925e-08, No Iterations 1
DILUPBiCGStab:  Solving for Uy, Initial residual = 0.000559781, Final residual = 9.78784e-09, No Iterations 1
DILUPBiCGStab:  Solving for h, Initial residual = 0.000377732, Final residual = 1.02156e-08, No Iterations 1
DICPCG:  Solving for p_rgh, Initial residual = 0.00811414, Final residual = 7.0216e-05, No Iterations 17
diagonal:  Solving for rho, Initial residual = 0, Final residual = 0, No Iterations 0
time step continuity errors : sum local = 6.71056e-09, global = -8.43194e-11, cumulative = 1.10854e-07
DICPCG:  Solving for p_rgh, Initial residual = 8.82027e-05, Final residual = 6.98034e-09, No Iterations 30
diagonal:  Solving for rho, Initial residual = 0, Final residual = 0, No Iterations 0
time step continuity errors : sum local = 7.66081e-11, global = -7.66081e-11, cumulative = 1.10777e-07
DILUPBiCGStab:  Solving for epsilon, Initial residual = 0.00114031, Final residual = 2.73443e-08, No Iterations 1
DILUPBiCGStab:  Solving for k, Initial residual = 0.000963048, Final residual = 4.7691e-08, No Iterations 1
ExecutionTime = 0.14 s  ClockTime = 0 s

Courant Number mean: 0.00598695 max: 0.0333242
Time = 100.58

diagonal:  Solving for rho, Initial residual = 0, Final residual = 0, No Iterations 0
DILUPBiCGStab:  Solving for Ux, Initial residual = 0.000633641, Final residual = 1.32997e-08, No Iterations 1
DILUPBiCGStab:  Solving for Uy, Initial residual = 0.000614011, Final residual = 1.0606e-08, No Iterations 1
DILUPBiCGStab:  Solving for h, Initial residual = 0.000388994, Final residual = 1.02833e-08, No Iterations 1
DICPCG:  Solving for p_rgh, Initial residual = 0.00503845, Final residual = 4.59226e-05, No Iterations 20
diagonal:  Solving for rho, Initial residual = 0, Final residual = 0, No Iterations 0
time step continuity errors : sum local = 4.42847e-09, global = 2.2159e-10, cumulative = 1.10999e-07
DICPCG:  Solving for p_rgh, Initial residual = 6.40361e-05, Final residual = 5.19384e-09, No Iterations 30
diagonal:  Solving for rho, Initial residual = 0, Final residual = 0, No Iterations 0
time step continuity errors : sum local = 4.03501e-11, global = -4.03501e-11, cumulative = 1.10959e-07
DILUPBiCGStab:  Solving for epsilon, Initial residual = 0.0011284, Final residual = 2.68323e-08, No Iterations 1
DILUPBiCGStab:  Solving for k, Initial residual = 0.000957598, Final residual = 4.68729e-08, No Iterations 1
ExecutionTime = 0.14 s  ClockTime = 0 s

Courant Number mean: 0.0059864 max: 0.0332389
Time = 100.59

diagonal:  Solving for rho, Initial residual = 0, Final residual = 0, No Iterations 0
DILUPBiCGStab:  Solving for Ux, Initial residual = 0.000677685, Final residual = 1.36093e-08, No Iterations 1
DILUPBiCGStab:  Solving for Uy, Initial residual = 0.000638572, Final residual = 1.13348e-08, No Iterations 1
DILUPBiCGStab:  Solving for h, Initial residual = 0.000404877, Final residual = 1.04064e-08, No Iterations 1
DICPCG:  Solving for p_rgh, Initial residual = 0.00159551, Final residual = 1.55229e-05, No Iterations 21
diagonal:  Solving for rho, Initial residual = 0, Final residual = 0, No Iterations 0
time step continuity errors : sum local = 1.65431e-09, global = 1.98419e-10, cumulative = 1.11157e-07
DICPCG:  Solving for p_rgh, Initial residual = 3.13145e-05, Final residual = 5.87992e-09, No Iterations 29
diagonal:  Solving for rho, Initial residual = 0, Final residual = 0, No Iterations 0
[...]
DICPCG:  Solving for p_rgh, Initial residual = 2.47364e-06, Final residual = 9.34551e-09, No Iterations 23
diagonal:  Solving for rho, Initial residual = 0, Final residual = 0, No Iterations 0
time step continuity errors : sum local = 9.2218e-13, global = -7.51768e-14, cumulative = 1.4492e-07
DILUPBiCGStab:  Solving for epsilon, Initial residual = 5.22571e-05, Final residual = 4.20963e-10, No Iterations 1
DILUPBiCGStab:  Solving for k, Initial residual = 0.000113063, Final residual = 1.66277e-09, No Iterations 1
ExecutionTime = 1.31 s  ClockTime = 1 s

Courant Number mean: 0.00637402 max: 0.0344599
Time = 105.59

diagonal:  Solving for rho, Initial residual = 0, Final residual = 0, No Iterations 0
DILUPBiCGStab:  Solving for Ux, Initial residual = 5.14178e-05, Final residual = 5.47423e-10, No Iterations 1
DILUPBiCGStab:  Solving for Uy, Initial residual = 0.000125853, Final residual = 1.36104e-09, No Iterations 1
DILUPBiCGStab:  Solving for h, Initial residual = 0.000221084, Final residual = 1.70306e-09, No Iterations 1
DICPCG:  Solving for p_rgh, Initial residual = 0.000132472, Final residual = 1.20296e-06, No Iterations 18
diagonal:  Solving for rho, Initial residual = 0, Final residual = 0, No Iterations 0
time step continuity errors : sum local = 2.003e-10, global = 3.66366e-12, cumulative = 1.44923e-07
DICPCG:  Solving for p_rgh, Initial residual = 2.46249e-06, Final residual = 9.32251e-09, No Iterations 23
diagonal:  Solving for rho, Initial residual = 0, Final residual = 0, No Iterations 0
time step continuity errors : sum local = 9.02529e-13, global = -6.73026e-14, cumulative = 1.44923e-07
DILUPBiCGStab:  Solving for epsilon, Initial residual = 5.21406e-05, Final residual = 4.19668e-10, No Iterations 1
DILUPBiCGStab:  Solving for k, Initial residual = 0.000112853, Final residual = 1.65831e-09, No Iterations 1
ExecutionTime = 1.31 s  ClockTime = 1 s

Courant Number mean: 0.00637437 max: 0.0344616
Time = 105.6

diagonal:  Solving for rho, Initial residual = 0, Final residual = 0, No Iterations 0
DILUPBiCGStab:  Solving for Ux, Initial residual = 5.13826e-05, Final residual = 5.46987e-10, No Iterations 1
DILUPBiCGStab:  Solving for Uy, Initial residual = 0.000125821, Final residual = 1.36104e-09, No Iterations 1
DILUPBiCGStab:  Solving for h, Initial residual = 0.000220965, Final residual = 1.70219e-09, No Iterations 1
DICPCG:  Solving for p_rgh, Initial residual = 0.00013228, Final residual = 1.1912e-06, No Iterations 18
diagonal:  Solving for rho, Initial residual = 0, Final residual = 0, No Iterations 0
time step continuity errors : sum local = 1.99339e-10, global = 3.60732e-12, cumulative = 1.44927e-07
DICPCG:  Solving for p_rgh, Initial residual = 2.45087e-06, Final residual = 9.29e-09, No Iterations 23
diagonal:  Solving for rho, Initial residual = 0, Final residual = 0, No Iterations 0
time step continuity errors : sum local = 9.16504e-13, global = -7.38279e-14, cumulative = 1.44927e-07
DILUPBiCGStab:  Solving for epsilon, Initial residual = 5.20245e-05, Final residual = 4.1838e-10, No Iterations 1
DILUPBiCGStab:  Solving for k, Initial residual = 0.000112644, Final residual = 1.65385e-09, No Iterations 1
ExecutionTime = 1.31 s  ClockTime = 1 s

Courant Number mean: 0.00637471 max: 0.0344632
Time = 105.61

diagonal:  Solving for rho, Initial residual = 0, Final residual = 0, No Iterations 0
DILUPBiCGStab:  Solving for Ux, Initial residual = 5.13475e-05, Final residual = 5.46551e-10, No Iterations 1
DILUPBiCGStab:  Solving for Uy, Initial residual = 0.000125788, Final residual = 1.36103e-09, No Iterations 1
DILUPBiCGStab:  Solving for h, Initial residual = 0.000220845, Final residual = 1.70133e-09, No Iterations 1
DICPCG:  Solving for p_rgh, Initial residual = 0.000132085, Final residual = 1.17932e-06, No Iterations 18
diagonal:  Solving for rho, Initial residual = 0, Final residual = 0, No Iterations 0
time step continuity errors : sum local = 1.98394e-10, global = 3.5576e-12, cumulative = 1.4493e-07
DICPCG:  Solving for p_rgh, Initial residual = 2.43964e-06, Final residual = 9.25109e-09, No Iterations 23
diagonal:  Solving for rho, Initial residual = 0, Final residual = 0, No Iterations 0
time step continuity errors : sum local = 9.13321e-13, global = -6.76824e-14, cumulative = 1.4493e-07
DILUPBiCGStab:  Solving for epsilon, Initial residual = 5.19088e-05, Final residual = 4.17095e-10, No Iterations 1
DILUPBiCGStab:  Solving for k, Initial residual = 0.000112435, Final residual = 1.6494e-09, No Iterations 1
ExecutionTime = 1.31 s  ClockTime = 1 s

Courant Number mean: 0.00637505 max: 0.0344649
Time = 105.62

diagonal:  Solving for rho, Initial residual = 0, Final residual = 0, No Iterations 0
DILUPBiCGStab:  Solving for Ux, Initial residual = 5.13125e-05, Final residual = 5.46116e-10, No Iterations 1
DILUPBiCGStab:  Solving for Uy, Initial residual = 0.000125754, Final residual = 1.36102e-09, No Iterations 1
DILUPBiCGStab:  Solving for h, Initial residual = 0.000220726, Final residual = 1.70047e-09, No Iterations 1
DICPCG:  Solving for p_rgh, Initial residual = 0.000131889, Final residual = 1.16729e-06, No Iterations 18
diagonal:  Solving for rho, Initial residual = 0, Final residual = 0, No Iterations 0
time step continuity errors : sum local = 1.97404e-10, global = 3.4955e-12, cumulative = 1.44934e-07
DICPCG:  Solving for p_rgh, Initial residual = 2.42779e-06, Final residual = 9.20572e-09, No Iterations 23
diagonal:  Solving for rho, Initial residual = 0, Final residual = 0, No Iterations 0
time step continuity errors : sum local = 8.8976e-13, global = -6.65707e-14, cumulative = 1.44934e-07
DILUPBiCGStab:  Solving for epsilon, Initial residual = 5.17934e-05, Final residual = 4.15818e-10, No Iterations 1
DILUPBiCGStab:  Solving for k, Initial residual = 0.000112229, Final residual = 1.64497e-09, No Iterations 1
ExecutionTime = 1.32 s  ClockTime = 1 s

Courant Number mean: 0.00637539 max: 0.0344665
Time = 105.63

diagonal:  Solving for rho, Initial residual = 0, Final residual = 0, No Iterations 0
DILUPBiCGStab:  Solving for Ux, Initial residual = 5.12777e-05, Final residual = 5.4568e-10, No Iterations 1
DILUPBiCGStab:  Solving for Uy, Initial residual = 0.000125721, Final residual = 1.361e-09, No Iterations 1
DILUPBiCGStab:  Solving for h, Initial residual = 0.000220608, Final residual = 1.69961e-09, No Iterations 1
DICPCG:  Solving for p_rgh, Initial residual = 0.000131693, Final residual = 1.1554e-06, No Iterations 18
diagonal:  Solving for rho, Initial residual = 0, Final residual = 0, No Iterations 0
time step continuity errors : sum local = 1.96461e-10, global = 3.44216e-12, cumulative = 1.44937e-07
DICPCG:  Solving for p_rgh, Initial residual = 2.41622e-06, Final residual = 9.15455e-09, No Iterations 23
diagonal:  Solving for rho, Initial residual = 0, Final residual = 0, No Iterations 0
time step continuity errors : sum local = 9.02449e-13, global = -7.07998e-14, cumulative = 1.44937e-07
DILUPBiCGStab:  Solving for epsilon, Initial residual = 5.16784e-05, Final residual = 4.14558e-10, No Iterations 1
DILUPBiCGStab:  Solving for k, Initial residual = 0.000112033, Final residual = 1.64054e-09, No Iterations 1
ExecutionTime = 1.32 s  ClockTime = 1 s

Courant Number mean: 0.00637572 max: 0.0344682
Time = 105.64

diagonal:  Solving for rho, Initial residual = 0, Final residual = 0, No Iterations 0
DILUPBiCGStab:  Solving for Ux, Initial residual = 5.12442e-05, Final residual = 5.45249e-10, No Iterations 1
DILUPBiCGStab:  Solving for Uy, Initial residual = 0.000125687, Final residual = 1.36097e-09, No Iterations 1
DILUPBiCGStab:  Solving for h, Initial residual = 0.000220489, Final residual = 1.69877e-09, No Iterations 1
DICPCG:  Solving for p_rgh, Initial residual = 0.000131494, Final residual = 1.14316e-06, No Iterations 18
diagonal:  Solving for rho, Initial residual = 0, Final residual = 0, No Iterations 0
time step continuity errors : sum local = 1.9548e-10, global = 3.38046e-12, cumulative = 1.44941e-07
DICPCG:  Solving for p_rgh, Initial residual = 2.4044e-06, Final residual = 9.09128e-09, No Iterations 23
diagonal:  Solving for rho, Initial residual = 0, Final residual = 0, No Iterations 0
time step continuity errors : sum local = 8.79075e-13, global = -6.77956e-14, cumulative = 1.44941e-07
DILUPBiCGStab:  Solving for epsilon, Initial residual = 5.15637e-05, Final residual = 4.13302e-10, No Iterations 1
DILUPBiCGStab:  Solving for k, Initial residual = 0.000111838, Final residual = 1.63612e-09, No Iterations 1
ExecutionTime = 1.32 s  ClockTime = 1 s

Courant Number mean: 0.00637606 max: 0.0344698
Time = 105.65

diagonal:  Solving for rho, Initial residual = 0, Final residual = 0, No Iterations 0
DILUPBiCGStab:  Solving for Ux, Initial residual = 5.12109e-05, Final residual = 5.44822e-10, No Iterations 1
DILUPBiCGStab:  Solving for Uy, Initial residual = 0.000125654, Final residual = 1.36093e-09, No Iterations 1
DILUPBiCGStab:  Solving for h, Initial residual = 0.00022037, Final residual = 1.69796e-09, No Iterations 1
DICPCG:  Solving for p_rgh, Initial residual = 0.000131294, Final residual = 1.30707e-06, No Iterations 16
diagonal:  Solving for rho, Initial residual = 0, Final residual = 0, No Iterations 0
time step continuity errors : sum local = 2.13411e-10, global = 3.03047e-12, cumulative = 1.44944e-07
DICPCG:  Solving for p_rgh, Initial residual = 2.48803e-06, Final residual = 6.47421e-09, No Iterations 24
diagonal:  Solving for rho, Initial residual = 0, Final residual = 0, No Iterations 0
time step continuity errors : sum local = 6.4719e-13, global = -8.07415e-14, cumulative = 1.44943e-07
DILUPBiCGStab:  Solving for epsilon, Initial residual = 5.14494e-05, Final residual = 4.12051e-10, No Iterations 1
DILUPBiCGStab:  Solving for k, Initial residual = 0.000111643, Final residual = 1.63171e-09, No Iterations 1
ExecutionTime = 1.32 s  ClockTime = 1 s

Courant Number mean: 0.00637639 max: 0.0344715
Time = 105.66

diagonal:  Solving for rho, Initial residual = 0, Final residual = 0, No Iterations 0
DILUPBiCGStab:  Solving for Ux, Initial residual = 5.11776e-05, Final residual = 5.44395e-10, No Iterations 1
DILUPBiCGStab:  Solving for Uy, Initial residual = 0.000125621, Final residual = 1.36089e-09, No Iterations 1
DILUPBiCGStab:  Solving for h, Initial residual = 0.000220252, Final residual = 1.69714e-09, No Iterations 1
DICPCG:  Solving for p_rgh, Initial residual = 0.000131093, Final residual = 1.28581e-06, No Iterations 16
diagonal:  Solving for rho, Initial residual = 0, Final residual = 0, No Iterations 0
time step continuity errors : sum local = 2.11697e-10, global = 2.99627e-12, cumulative = 1.44946e-07
DICPCG:  Solving for p_rgh, Initial residual = 2.46973e-06, Final residual = 6.54147e-09, No Iterations 24
diagonal:  Solving for rho, Initial residual = 0, Final residual = 0, No Iterations 0
time step continuity errors : sum local = 6.47629e-13, global = -7.56347e-14, cumulative = 1.44946e-07
DILUPBiCGStab:  Solving for epsilon, Initial residual = 5.13354e-05, Final residual = 4.10804e-10, No Iterations 1
DILUPBiCGStab:  Solving for k, Initial residual = 0.000111449, Final residual = 1.62732e-09, No Iterations 1
ExecutionTime = 1.32 s  ClockTime = 1 s

Courant Number mean: 0.00637673 max: 0.0344731
Time = 105.67

diagonal:  Solving for rho, Initial residual = 0, Final residual = 0, No Iterations 0
DILUPBiCGStab:  Solving for Ux, Initial residual = 5.11446e-05, Final residual = 5.43968e-10, No Iterations 1
DILUPBiCGStab:  Solving for Uy, Initial residual = 0.000125589, Final residual = 1.36085e-09, No Iterations 1
DILUPBiCGStab:  Solving for h, Initial residual = 0.000220134, Final residual = 1.69632e-09, No Iterations 1
DICPCG:  Solving for p_rgh, Initial residual = 0.000130891, Final residual = 1.26611e-06, No Iterations 16
diagonal:  Solving for rho, Initial residual = 0, Final residual = 0, No Iterations 0
time step continuity errors : sum local = 2.10089e-10, global = 2.95828e-12, cumulative = 1.44949e-07
DICPCG:  Solving for p_rgh, Initial residual = 2.45242e-06, Final residual = 6.61208e-09, No Iterations 24
diagonal:  Solving for rho, Initial residual = 0, Final residual = 0, No Iterations 0
time step continuity errors : sum local = 6.48575e-13, global = -7.87164e-14, cumulative = 1.44949e-07
DILUPBiCGStab:  Solving for epsilon, Initial residual = 5.12218e-05, Final residual = 4.0956e-10, No Iterations 1
DILUPBiCGStab:  Solving for k, Initial residual = 0.000111256, Final residual = 1.62293e-09, No Iterations 1
ExecutionTime = 1.33 s  ClockTime = 1 s

Courant Number mean: 0.00637706 max: 0.0344747
Time = 105.68

diagonal:  Solving for rho, Initial residual = 0, Final residual = 0, No Iterations 0
DILUPBiCGStab:  Solving for Ux, Initial residual = 5.11118e-05, Final residual = 5.43541e-10, No Iterations 1
DILUPBiCGStab:  Solving for Uy, Initial residual = 0.000125555, Final residual = 1.3608e-09, No Iterations 1
DILUPBiCGStab:  Solving for h, Initial residual = 0.000220017, Final residual = 1.69551e-09, No Iterations 1
DICPCG:  Solving for p_rgh, Initial residual = 0.000130686, Final residual = 1.24581e-06, No Iterations 16
diagonal:  Solving for rho, Initial residual = 0, Final residual = 0, No Iterations 0
time step continuity errors : sum local = 2.08435e-10, global = 2.92033e-12, cumulative = 1.44952e-07
DICPCG:  Solving for p_rgh, Initial residual = 2.43482e-06, Final residual = 6.68829e-09, No Iterations 24
diagonal:  Solving for rho, Initial residual = 0, Final residual = 0, No Iterations 0
time step continuity errors : sum local = 6.616e-13, global = -8.55362e-14, cumulative = 1.44952e-07
DILUPBiCGStab:  Solving for epsilon, Initial residual = 5.11086e-05, Final residual = 4.08321e-10, No Iterations 1
DILUPBiCGStab:  Solving for k, Initial residual = 0.000111064, Final residual = 1.61855e-09, No Iterations 1
ExecutionTime = 1.33 s  ClockTime = 1 s

Courant Number mean: 0.00637739 max: 0.0344764
Time = 105.69

diagonal:  Solving for rho, Initial residual = 0, Final residual = 0, No Iterations 0
DILUPBiCGStab:  Solving for Ux, Initial residual = 5.10792e-05, Final residual = 5.43115e-10, No Iterations 1
DILUPBiCGStab:  Solving for Uy, Initial residual = 0.000125522, Final residual = 1.36074e-09, No Iterations 1
DILUPBiCGStab:  Solving for h, Initial residual = 0.000219907, Final residual = 1.6947e-09, No Iterations 1
DICPCG:  Solving for p_rgh, Initial residual = 0.00013049, Final residual = 1.22463e-06, No Iterations 16
diagonal:  Solving for rho, Initial residual = 0, Final residual = 0, No Iterations 0
time step continuity errors : sum local = 2.0667e-10, global = 2.90084e-12, cumulative = 1.44955e-07
DICPCG:  Solving for p_rgh, Initial residual = 2.41616e-06, Final residual = 6.77793e-09, No Iterations 24
diagonal:  Solving for rho, Initial residual = 0, Final residual = 0, No Iterations 0
time step continuity errors : sum local = 6.64602e-13, global = -7.73182e-14, cumulative = 1.44955e-07
DILUPBiCGStab:  Solving for epsilon, Initial residual = 5.09956e-05, Final residual = 4.07084e-10, No Iterations 1
DILUPBiCGStab:  Solving for k, Initial residual = 0.000110872, Final residual = 1.61418e-09, No Iterations 1
ExecutionTime = 1.33 s  ClockTime = 1 s

Courant Number mean: 0.00637773 max: 0.034478
Time = 105.7

diagonal:  Solving for rho, Initial residual = 0, Final residual = 0, No Iterations 0
DILUPBiCGStab:  Solving for Ux, Initial residual = 5.10467e-05, Final residual = 5.42692e-10, No Iterations 1
DILUPBiCGStab:  Solving for Uy, Initial residual = 0.000125489, Final residual = 1.36068e-09, No Iterations 1
DILUPBiCGStab:  Solving for h, Initial residual = 0.0002198, Final residual = 1.69389e-09, No Iterations 1
DICPCG:  Solving for p_rgh, Initial residual = 0.000130296, Final residual = 1.20318e-06, No Iterations 16
diagonal:  Solving for rho, Initial residual = 0, Final residual = 0, No Iterations 0
time step continuity errors : sum local = 2.04897e-10, global = 2.87706e-12, cumulative = 1.44958e-07
DICPCG:  Solving for p_rgh, Initial residual = 2.39755e-06, Final residual = 6.87477e-09, No Iterations 24
diagonal:  Solving for rho, Initial residual = 0, Final residual = 0, No Iterations 0
time step continuity errors : sum local = 6.85324e-13, global = -7.2927e-14, cumulative = 1.44958e-07
DILUPBiCGStab:  Solving for epsilon, Initial residual = 5.0883e-05, Final residual = 4.05852e-10, No Iterations 1
DILUPBiCGStab:  Solving for k, Initial residual = 0.00011068, Final residual = 1.60982e-09, No Iterations 1
ExecutionTime = 1.33 s  ClockTime = 1 s

Courant Number mean: 0.00637806 max: 0.0344796
Time = 105.71

diagonal:  Solving for rho, Initial residual = 0, Final residual = 0, No Iterations 0
DILUPBiCGStab:  Solving for Ux, Initial residual = 5.10143e-05, Final residual = 5.42269e-10, No Iterations 1
DILUPBiCGStab:  Solving for Uy, Initial residual = 0.000125456, Final residual = 1.36061e-09, No Iterations 1
DILUPBiCGStab:  Solving for h, Initial residual = 0.000219692, Final residual = 1.69308e-09, No Iterations 1
DICPCG:  Solving for p_rgh, Initial residual = 0.000130087, Final residual = 1.18302e-06, No Iterations 16
diagonal:  Solving for rho, Initial residual = 0, Final residual = 0, No Iterations 0
time step continuity errors : sum local = 2.03212e-10, global = 2.84143e-12, cumulative = 1.44961e-07
DICPCG:  Solving for p_rgh, Initial residual = 2.37978e-06, Final residual = 6.97049e-09, No Iterations 24
diagonal:  Solving for rho, Initial residual = 0, Final residual = 0, No Iterations 0
time step continuity errors : sum local = 6.76678e-13, global = -7.82238e-14, cumulative = 1.44961e-07
DILUPBiCGStab:  Solving for epsilon, Initial residual = 5.07708e-05, Final residual = 4.04624e-10, No Iterations 1
DILUPBiCGStab:  Solving for k, Initial residual = 0.000110489, Final residual = 1.60547e-09, No Iterations 1
ExecutionTime = 1.34 s  ClockTime = 1 s

Courant Number mean: 0.00637839 max: 0.0344813
Time = 105.72

diagonal:  Solving for rho, Initial residual = 0, Final residual = 0, No Iterations 0
DILUPBiCGStab:  Solving for Ux, Initial residual = 5.09821e-05, Final residual = 5.41845e-10, No Iterations 1
DILUPBiCGStab:  Solving for Uy, Initial residual = 0.000125422, Final residual = 1.36053e-09, No Iterations 1
DILUPBiCGStab:  Solving for h, Initial residual = 0.000219584, Final residual = 1.69227e-09, No Iterations 1
DICPCG:  Solving for p_rgh, Initial residual = 0.000129876, Final residual = 1.16365e-06, No Iterations 16
diagonal:  Solving for rho, Initial residual = 0, Final residual = 0, No Iterations 0
time step continuity errors : sum local = 2.01612e-10, global = 2.80198e-12, cumulative = 1.44963e-07
DICPCG:  Solving for p_rgh, Initial residual = 2.36285e-06, Final residual = 7.06755e-09, No Iterations 24
diagonal:  Solving for rho, Initial residual = 0, Final residual = 0, No Iterations 0
time step continuity errors : sum local = 6.86971e-13, global = -6.98586e-14, cumulative = 1.44963e-07
DILUPBiCGStab:  Solving for epsilon, Initial residual = 5.06589e-05, Final residual = 4.03401e-10, No Iterations 1
DILUPBiCGStab:  Solving for k, Initial residual = 0.0001103, Final residual = 1.60113e-09, No Iterations 1
ExecutionTime = 1.34 s  ClockTime = 1 s

Courant Number mean: 0.00637872 max: 0.0344829
Time = 105.73

diagonal:  Solving for rho, Initial residual = 0, Final residual = 0, No Iterations 0
DILUPBiCGStab:  Solving for Ux, Initial residual = 5.095e-05, Final residual = 5.41422e-10, No Iterations 1
DILUPBiCGStab:  Solving for Uy, Initial residual = 0.000125388, Final residual = 1.36044e-09, No Iterations 1
DILUPBiCGStab:  Solving for h, Initial residual = 0.000219477, Final residual = 1.69147e-09, No Iterations 1
DICPCG:  Solving for p_rgh, Initial residual = 0.000129664, Final residual = 1.14415e-06, No Iterations 16
diagonal:  Solving for rho, Initial residual = 0, Final residual = 0, No Iterations 0
time step continuity errors : sum local = 2e-10, global = 2.7778e-12, cumulative = 1.44966e-07
